
---------- Begin Simulation Statistics ----------
simSeconds                                   2.817030                       # Number of seconds simulated (Second)
simTicks                                 2817030058000                       # Number of ticks simulated (Tick)
finalTick                                2817030058000                       # Number of ticks from beginning of simulation (restored from checkpoints and never reset) (Tick)
simFreq                                  1000000000000                       # The number of ticks per simulated second ((Tick/Second))
hostSeconds                                    684.91                       # Real time elapsed on the host (Second)
hostTickRate                               4112976520                       # The number of ticks simulated per host second (ticks/s) ((Tick/Second))
hostMemory                                    8534188                       # Number of bytes of host memory used (Byte)
simInsts                                    500000000                       # Number of instructions simulated (Count)
simOps                                      823337596                       # Number of ops (including micro ops) simulated (Count)
hostInstRate                                   730020                       # Simulator instruction rate (inst/s) ((Count/Second))
hostOpRate                                    1202106                       # Simulator op (including micro ops) rate (op/s) ((Count/Second))
system.clk_domain.clock                          1000                       # Clock period in ticks (Tick)
system.clk_domain.voltage_domain.voltage            1                       # Voltage in Volts (Volt)
system.cpu.numCycles                       2817030058                       # Number of cpu cycles simulated (Cycle)
system.cpu.numWorkItemsStarted                      0                       # Number of work items this cpu started (Count)
system.cpu.numWorkItemsCompleted                    0                       # Number of work items this cpu completed (Count)
system.cpu.branchPred.lookups                69678108                       # Number of BP lookups (Count)
system.cpu.branchPred.condPredicted          57206616                       # Number of conditional branches predicted (Count)
system.cpu.branchPred.condIncorrect          13688056                       # Number of conditional branches incorrect (Count)
system.cpu.branchPred.BTBLookups             52887739                       # Number of BTB lookups (Count)
system.cpu.branchPred.BTBHits                43868891                       # Number of BTB hits (Count)
system.cpu.branchPred.BTBHitRatio            0.829472                       # BTB Hit Ratio (Ratio)
system.cpu.branchPred.RASUsed                 2826865                       # Number of times the RAS was used to get a target. (Count)
system.cpu.branchPred.RASIncorrect                 39                       # Number of incorrect RAS predictions. (Count)
system.cpu.branchPred.indirectLookups         1633564                       # Number of indirect predictor lookups. (Count)
system.cpu.branchPred.indirectHits            1401464                       # Number of indirect target hits. (Count)
system.cpu.branchPred.indirectMisses           232100                       # Number of indirect misses. (Count)
system.cpu.branchPred.indirectMispredicted       192470                       # Number of mispredicted indirect branches. (Count)
system.cpu.dcache.demandHits::cpu.data      262857347                       # number of demand (read+write) hits (Count)
system.cpu.dcache.demandHits::total         262857347                       # number of demand (read+write) hits (Count)
system.cpu.dcache.overallHits::cpu.data     262857347                       # number of overall hits (Count)
system.cpu.dcache.overallHits::total        262857347                       # number of overall hits (Count)
system.cpu.dcache.demandMisses::cpu.data      8771534                       # number of demand (read+write) misses (Count)
system.cpu.dcache.demandMisses::total         8771534                       # number of demand (read+write) misses (Count)
system.cpu.dcache.overallMisses::cpu.data      8771534                       # number of overall misses (Count)
system.cpu.dcache.overallMisses::total        8771534                       # number of overall misses (Count)
system.cpu.dcache.demandMissLatency::cpu.data 888534890000                       # number of demand (read+write) miss ticks (Tick)
system.cpu.dcache.demandMissLatency::total 888534890000                       # number of demand (read+write) miss ticks (Tick)
system.cpu.dcache.overallMissLatency::cpu.data 888534890000                       # number of overall miss ticks (Tick)
system.cpu.dcache.overallMissLatency::total 888534890000                       # number of overall miss ticks (Tick)
system.cpu.dcache.demandAccesses::cpu.data    271628881                       # number of demand (read+write) accesses (Count)
system.cpu.dcache.demandAccesses::total     271628881                       # number of demand (read+write) accesses (Count)
system.cpu.dcache.overallAccesses::cpu.data    271628881                       # number of overall (read+write) accesses (Count)
system.cpu.dcache.overallAccesses::total    271628881                       # number of overall (read+write) accesses (Count)
system.cpu.dcache.demandMissRate::cpu.data     0.032292                       # miss rate for demand accesses (Ratio)
system.cpu.dcache.demandMissRate::total      0.032292                       # miss rate for demand accesses (Ratio)
system.cpu.dcache.overallMissRate::cpu.data     0.032292                       # miss rate for overall accesses (Ratio)
system.cpu.dcache.overallMissRate::total     0.032292                       # miss rate for overall accesses (Ratio)
system.cpu.dcache.demandAvgMissLatency::cpu.data 101297.548411                       # average overall miss latency in ticks ((Tick/Count))
system.cpu.dcache.demandAvgMissLatency::total 101297.548411                       # average overall miss latency in ticks ((Tick/Count))
system.cpu.dcache.overallAvgMissLatency::cpu.data 101297.548411                       # average overall miss latency ((Tick/Count))
system.cpu.dcache.overallAvgMissLatency::total 101297.548411                       # average overall miss latency ((Tick/Count))
system.cpu.dcache.blockedCycles::no_mshrs            0                       # number of cycles access was blocked (Cycle)
system.cpu.dcache.blockedCycles::no_targets            0                       # number of cycles access was blocked (Cycle)
system.cpu.dcache.blockedCauses::no_mshrs            0                       # number of times access was blocked (Count)
system.cpu.dcache.blockedCauses::no_targets            0                       # number of times access was blocked (Count)
system.cpu.dcache.avgBlocked::no_mshrs            nan                       # average number of cycles each access was blocked ((Cycle/Count))
system.cpu.dcache.avgBlocked::no_targets          nan                       # average number of cycles each access was blocked ((Cycle/Count))
system.cpu.dcache.writebacks::writebacks      8566561                       # number of writebacks (Count)
system.cpu.dcache.writebacks::total           8566561                       # number of writebacks (Count)
system.cpu.dcache.demandMshrMisses::cpu.data      8771534                       # number of demand (read+write) MSHR misses (Count)
system.cpu.dcache.demandMshrMisses::total      8771534                       # number of demand (read+write) MSHR misses (Count)
system.cpu.dcache.overallMshrMisses::cpu.data      8771534                       # number of overall MSHR misses (Count)
system.cpu.dcache.overallMshrMisses::total      8771534                       # number of overall MSHR misses (Count)
system.cpu.dcache.demandMshrMissLatency::cpu.data 870991822000                       # number of demand (read+write) MSHR miss ticks (Tick)
system.cpu.dcache.demandMshrMissLatency::total 870991822000                       # number of demand (read+write) MSHR miss ticks (Tick)
system.cpu.dcache.overallMshrMissLatency::cpu.data 870991822000                       # number of overall MSHR miss ticks (Tick)
system.cpu.dcache.overallMshrMissLatency::total 870991822000                       # number of overall MSHR miss ticks (Tick)
system.cpu.dcache.demandMshrMissRate::cpu.data     0.032292                       # mshr miss ratio for demand accesses (Ratio)
system.cpu.dcache.demandMshrMissRate::total     0.032292                       # mshr miss ratio for demand accesses (Ratio)
system.cpu.dcache.overallMshrMissRate::cpu.data     0.032292                       # mshr miss ratio for overall accesses (Ratio)
system.cpu.dcache.overallMshrMissRate::total     0.032292                       # mshr miss ratio for overall accesses (Ratio)
system.cpu.dcache.demandAvgMshrMissLatency::cpu.data 99297.548411                       # average overall mshr miss latency ((Tick/Count))
system.cpu.dcache.demandAvgMshrMissLatency::total 99297.548411                       # average overall mshr miss latency ((Tick/Count))
system.cpu.dcache.overallAvgMshrMissLatency::cpu.data 99297.548411                       # average overall mshr miss latency ((Tick/Count))
system.cpu.dcache.overallAvgMshrMissLatency::total 99297.548411                       # average overall mshr miss latency ((Tick/Count))
system.cpu.dcache.replacements                8771022                       # number of replacements (Count)
system.cpu.dcache.LockedRMWReadReq.hits::cpu.data           16                       # number of LockedRMWReadReq hits (Count)
system.cpu.dcache.LockedRMWReadReq.hits::total           16                       # number of LockedRMWReadReq hits (Count)
system.cpu.dcache.LockedRMWReadReq.accesses::cpu.data           16                       # number of LockedRMWReadReq accesses(hits+misses) (Count)
system.cpu.dcache.LockedRMWReadReq.accesses::total           16                       # number of LockedRMWReadReq accesses(hits+misses) (Count)
system.cpu.dcache.LockedRMWReadReq.mshrMissLatency::cpu.data        32000                       # number of LockedRMWReadReq MSHR miss ticks (Tick)
system.cpu.dcache.LockedRMWReadReq.mshrMissLatency::total        32000                       # number of LockedRMWReadReq MSHR miss ticks (Tick)
system.cpu.dcache.LockedRMWReadReq.avgMshrMissLatency::cpu.data          inf                       # average LockedRMWReadReq mshr miss latency ((Tick/Count))
system.cpu.dcache.LockedRMWReadReq.avgMshrMissLatency::total          inf                       # average LockedRMWReadReq mshr miss latency ((Tick/Count))
system.cpu.dcache.LockedRMWWriteReq.hits::cpu.data           16                       # number of LockedRMWWriteReq hits (Count)
system.cpu.dcache.LockedRMWWriteReq.hits::total           16                       # number of LockedRMWWriteReq hits (Count)
system.cpu.dcache.LockedRMWWriteReq.accesses::cpu.data           16                       # number of LockedRMWWriteReq accesses(hits+misses) (Count)
system.cpu.dcache.LockedRMWWriteReq.accesses::total           16                       # number of LockedRMWWriteReq accesses(hits+misses) (Count)
system.cpu.dcache.ReadReq.hits::cpu.data    156895701                       # number of ReadReq hits (Count)
system.cpu.dcache.ReadReq.hits::total       156895701                       # number of ReadReq hits (Count)
system.cpu.dcache.ReadReq.misses::cpu.data       348268                       # number of ReadReq misses (Count)
system.cpu.dcache.ReadReq.misses::total        348268                       # number of ReadReq misses (Count)
system.cpu.dcache.ReadReq.missLatency::cpu.data  15647422000                       # number of ReadReq miss ticks (Tick)
system.cpu.dcache.ReadReq.missLatency::total  15647422000                       # number of ReadReq miss ticks (Tick)
system.cpu.dcache.ReadReq.accesses::cpu.data    157243969                       # number of ReadReq accesses(hits+misses) (Count)
system.cpu.dcache.ReadReq.accesses::total    157243969                       # number of ReadReq accesses(hits+misses) (Count)
system.cpu.dcache.ReadReq.missRate::cpu.data     0.002215                       # miss rate for ReadReq accesses (Ratio)
system.cpu.dcache.ReadReq.missRate::total     0.002215                       # miss rate for ReadReq accesses (Ratio)
system.cpu.dcache.ReadReq.avgMissLatency::cpu.data 44929.255631                       # average ReadReq miss latency ((Tick/Count))
system.cpu.dcache.ReadReq.avgMissLatency::total 44929.255631                       # average ReadReq miss latency ((Tick/Count))
system.cpu.dcache.ReadReq.mshrMisses::cpu.data       348268                       # number of ReadReq MSHR misses (Count)
system.cpu.dcache.ReadReq.mshrMisses::total       348268                       # number of ReadReq MSHR misses (Count)
system.cpu.dcache.ReadReq.mshrMissLatency::cpu.data  14950886000                       # number of ReadReq MSHR miss ticks (Tick)
system.cpu.dcache.ReadReq.mshrMissLatency::total  14950886000                       # number of ReadReq MSHR miss ticks (Tick)
system.cpu.dcache.ReadReq.mshrMissRate::cpu.data     0.002215                       # mshr miss rate for ReadReq accesses (Ratio)
system.cpu.dcache.ReadReq.mshrMissRate::total     0.002215                       # mshr miss rate for ReadReq accesses (Ratio)
system.cpu.dcache.ReadReq.avgMshrMissLatency::cpu.data 42929.255631                       # average ReadReq mshr miss latency ((Tick/Count))
system.cpu.dcache.ReadReq.avgMshrMissLatency::total 42929.255631                       # average ReadReq mshr miss latency ((Tick/Count))
system.cpu.dcache.WriteReq.hits::cpu.data    105961646                       # number of WriteReq hits (Count)
system.cpu.dcache.WriteReq.hits::total      105961646                       # number of WriteReq hits (Count)
system.cpu.dcache.WriteReq.misses::cpu.data      8423266                       # number of WriteReq misses (Count)
system.cpu.dcache.WriteReq.misses::total      8423266                       # number of WriteReq misses (Count)
system.cpu.dcache.WriteReq.missLatency::cpu.data 872887468000                       # number of WriteReq miss ticks (Tick)
system.cpu.dcache.WriteReq.missLatency::total 872887468000                       # number of WriteReq miss ticks (Tick)
system.cpu.dcache.WriteReq.accesses::cpu.data    114384912                       # number of WriteReq accesses(hits+misses) (Count)
system.cpu.dcache.WriteReq.accesses::total    114384912                       # number of WriteReq accesses(hits+misses) (Count)
system.cpu.dcache.WriteReq.missRate::cpu.data     0.073640                       # miss rate for WriteReq accesses (Ratio)
system.cpu.dcache.WriteReq.missRate::total     0.073640                       # miss rate for WriteReq accesses (Ratio)
system.cpu.dcache.WriteReq.avgMissLatency::cpu.data 103628.149461                       # average WriteReq miss latency ((Tick/Count))
system.cpu.dcache.WriteReq.avgMissLatency::total 103628.149461                       # average WriteReq miss latency ((Tick/Count))
system.cpu.dcache.WriteReq.mshrMisses::cpu.data      8423266                       # number of WriteReq MSHR misses (Count)
system.cpu.dcache.WriteReq.mshrMisses::total      8423266                       # number of WriteReq MSHR misses (Count)
system.cpu.dcache.WriteReq.mshrMissLatency::cpu.data 856040936000                       # number of WriteReq MSHR miss ticks (Tick)
system.cpu.dcache.WriteReq.mshrMissLatency::total 856040936000                       # number of WriteReq MSHR miss ticks (Tick)
system.cpu.dcache.WriteReq.mshrMissRate::cpu.data     0.073640                       # mshr miss rate for WriteReq accesses (Ratio)
system.cpu.dcache.WriteReq.mshrMissRate::total     0.073640                       # mshr miss rate for WriteReq accesses (Ratio)
system.cpu.dcache.WriteReq.avgMshrMissLatency::cpu.data 101628.149461                       # average WriteReq mshr miss latency ((Tick/Count))
system.cpu.dcache.WriteReq.avgMshrMissLatency::total 101628.149461                       # average WriteReq mshr miss latency ((Tick/Count))
system.cpu.dcache.power_state.pwrStateResidencyTicks::UNDEFINED 2817030058000                       # Cumulative time (in ticks) in various power states (Tick)
system.cpu.dcache.tags.tagsInUse           511.964853                       # Average ticks per tags in use ((Tick/Count))
system.cpu.dcache.tags.totalRefs            271628913                       # Total number of references to valid blocks. (Count)
system.cpu.dcache.tags.sampledRefs            8771534                       # Sample count of references to valid blocks. (Count)
system.cpu.dcache.tags.avgRefs              30.967093                       # Average number of references to valid blocks. ((Count/Count))
system.cpu.dcache.tags.warmupTick              220000                       # The tick when the warmup percentage was hit. (Tick)
system.cpu.dcache.tags.occupancies::cpu.data   511.964853                       # Average occupied blocks per tick, per requestor ((Count/Tick))
system.cpu.dcache.tags.avgOccs::cpu.data     0.999931                       # Average percentage of cache occupancy ((Ratio/Tick))
system.cpu.dcache.tags.avgOccs::total        0.999931                       # Average percentage of cache occupancy ((Ratio/Tick))
system.cpu.dcache.tags.occupanciesTaskId::1024          512                       # Occupied blocks per task id (Count)
system.cpu.dcache.tags.ageTaskId_1024::0            6                       # Occupied blocks per task id, per block age (Count)
system.cpu.dcache.tags.ageTaskId_1024::1           24                       # Occupied blocks per task id, per block age (Count)
system.cpu.dcache.tags.ageTaskId_1024::2          135                       # Occupied blocks per task id, per block age (Count)
system.cpu.dcache.tags.ageTaskId_1024::3          188                       # Occupied blocks per task id, per block age (Count)
system.cpu.dcache.tags.ageTaskId_1024::4          159                       # Occupied blocks per task id, per block age (Count)
system.cpu.dcache.tags.ratioOccsTaskId::1024            1                       # Ratio of occupied blocks and all blocks, per task id (Ratio)
system.cpu.dcache.tags.tagAccesses         1095287186                       # Number of tag accesses (Count)
system.cpu.dcache.tags.dataAccesses        1095287186                       # Number of data accesses (Count)
system.cpu.dcache.tags.power_state.pwrStateResidencyTicks::UNDEFINED 2817030058000                       # Cumulative time (in ticks) in various power states (Tick)
system.cpu.exec_context.thread_0.numInsts    500000000                       # Number of instructions committed (Count)
system.cpu.exec_context.thread_0.numOps     823337596                       # Number of ops (including micro ops) committed (Count)
system.cpu.exec_context.thread_0.numIntAluAccesses    821440785                       # Number of integer alu accesses (Count)
system.cpu.exec_context.thread_0.numFpAluAccesses     66579404                       # Number of float alu accesses (Count)
system.cpu.exec_context.thread_0.numVecAluAccesses            0                       # Number of vector alu accesses (Count)
system.cpu.exec_context.thread_0.numCallsReturns      5653744                       # Number of times a function call or return occured (Count)
system.cpu.exec_context.thread_0.numCondCtrlInsts     57206616                       # Number of instructions that are conditional controls (Count)
system.cpu.exec_context.thread_0.numIntInsts    821440785                       # Number of integer instructions (Count)
system.cpu.exec_context.thread_0.numFpInsts     66579404                       # Number of float instructions (Count)
system.cpu.exec_context.thread_0.numVecInsts            0                       # Number of vector instructions (Count)
system.cpu.exec_context.thread_0.numIntRegReads    946403298                       # Number of times the integer registers were read (Count)
system.cpu.exec_context.thread_0.numIntRegWrites    582150503                       # Number of times the integer registers were written (Count)
system.cpu.exec_context.thread_0.numFpRegReads     66767079                       # Number of times the floating registers were read (Count)
system.cpu.exec_context.thread_0.numFpRegWrites       208081                       # Number of times the floating registers were written (Count)
system.cpu.exec_context.thread_0.numVecRegReads            0                       # Number of times the vector registers were read (Count)
system.cpu.exec_context.thread_0.numVecRegWrites            0                       # Number of times the vector registers were written (Count)
system.cpu.exec_context.thread_0.numVecPredRegReads            0                       # Number of times the predicate registers were read (Count)
system.cpu.exec_context.thread_0.numVecPredRegWrites            0                       # Number of times the predicate registers were written (Count)
system.cpu.exec_context.thread_0.numCCRegReads    319708850                       # Number of times the CC registers were read (Count)
system.cpu.exec_context.thread_0.numCCRegWrites    287990710                       # Number of times the CC registers were written (Count)
system.cpu.exec_context.thread_0.numMiscRegReads    429787043                       # Number of times the Misc registers were read (Count)
system.cpu.exec_context.thread_0.numMiscRegWrites          138                       # Number of times the Misc registers were written (Count)
system.cpu.exec_context.thread_0.numMemRefs    271672300                       # Number of memory refs (Count)
system.cpu.exec_context.thread_0.numLoadInsts    157243393                       # Number of load instructions (Count)
system.cpu.exec_context.thread_0.numStoreInsts    114428907                       # Number of store instructions (Count)
system.cpu.exec_context.thread_0.numIdleCycles            0                       # Number of idle cycles (Cycle)
system.cpu.exec_context.thread_0.numBusyCycles   2817030058                       # Number of busy cycles (Cycle)
system.cpu.exec_context.thread_0.notIdleFraction            1                       # Percentage of non-idle cycles (Ratio)
system.cpu.exec_context.thread_0.idleFraction            0                       # Percentage of idle cycles (Ratio)
system.cpu.exec_context.thread_0.numBranches     69678108                       # Number of branches fetched (Count)
system.cpu.exec_context.thread_0.numPredictedBranches     48097220                       # Number of branches predicted as taken (Count)
system.cpu.exec_context.thread_0.numBranchMispred     13688056                       # Number of branch mispredictions (Count)
system.cpu.exec_context.thread_0.statExecutedInstType::No_OpClass         4972      0.00%      0.00% # Class of executed instruction. (Count)
system.cpu.exec_context.thread_0.statExecutedInstType::IntAlu    550242683     66.83%     66.83% # Class of executed instruction. (Count)
system.cpu.exec_context.thread_0.statExecutedInstType::IntMult       125115      0.02%     66.84% # Class of executed instruction. (Count)
system.cpu.exec_context.thread_0.statExecutedInstType::IntDiv      1153533      0.14%     66.98% # Class of executed instruction. (Count)
system.cpu.exec_context.thread_0.statExecutedInstType::FloatAdd        20124      0.00%     66.99% # Class of executed instruction. (Count)
system.cpu.exec_context.thread_0.statExecutedInstType::FloatCmp            0      0.00%     66.99% # Class of executed instruction. (Count)
system.cpu.exec_context.thread_0.statExecutedInstType::FloatCvt            0      0.00%     66.99% # Class of executed instruction. (Count)
system.cpu.exec_context.thread_0.statExecutedInstType::FloatMult            0      0.00%     66.99% # Class of executed instruction. (Count)
system.cpu.exec_context.thread_0.statExecutedInstType::FloatMultAcc            0      0.00%     66.99% # Class of executed instruction. (Count)
system.cpu.exec_context.thread_0.statExecutedInstType::FloatDiv            0      0.00%     66.99% # Class of executed instruction. (Count)
system.cpu.exec_context.thread_0.statExecutedInstType::FloatMisc            0      0.00%     66.99% # Class of executed instruction. (Count)
system.cpu.exec_context.thread_0.statExecutedInstType::FloatSqrt            0      0.00%     66.99% # Class of executed instruction. (Count)
system.cpu.exec_context.thread_0.statExecutedInstType::SimdAdd            0      0.00%     66.99% # Class of executed instruction. (Count)
system.cpu.exec_context.thread_0.statExecutedInstType::SimdAddAcc            0      0.00%     66.99% # Class of executed instruction. (Count)
system.cpu.exec_context.thread_0.statExecutedInstType::SimdAlu         8174      0.00%     66.99% # Class of executed instruction. (Count)
system.cpu.exec_context.thread_0.statExecutedInstType::SimdCmp           12      0.00%     66.99% # Class of executed instruction. (Count)
system.cpu.exec_context.thread_0.statExecutedInstType::SimdCvt         9520      0.00%     66.99% # Class of executed instruction. (Count)
system.cpu.exec_context.thread_0.statExecutedInstType::SimdMisc       145277      0.02%     67.01% # Class of executed instruction. (Count)
system.cpu.exec_context.thread_0.statExecutedInstType::SimdMult            0      0.00%     67.01% # Class of executed instruction. (Count)
system.cpu.exec_context.thread_0.statExecutedInstType::SimdMultAcc            0      0.00%     67.01% # Class of executed instruction. (Count)
system.cpu.exec_context.thread_0.statExecutedInstType::SimdShift            0      0.00%     67.01% # Class of executed instruction. (Count)
system.cpu.exec_context.thread_0.statExecutedInstType::SimdShiftAcc            0      0.00%     67.01% # Class of executed instruction. (Count)
system.cpu.exec_context.thread_0.statExecutedInstType::SimdDiv            0      0.00%     67.01% # Class of executed instruction. (Count)
system.cpu.exec_context.thread_0.statExecutedInstType::SimdSqrt            0      0.00%     67.01% # Class of executed instruction. (Count)
system.cpu.exec_context.thread_0.statExecutedInstType::SimdFloatAdd            0      0.00%     67.01% # Class of executed instruction. (Count)
system.cpu.exec_context.thread_0.statExecutedInstType::SimdFloatAlu            0      0.00%     67.01% # Class of executed instruction. (Count)
system.cpu.exec_context.thread_0.statExecutedInstType::SimdFloatCmp            0      0.00%     67.01% # Class of executed instruction. (Count)
system.cpu.exec_context.thread_0.statExecutedInstType::SimdFloatCvt           47      0.00%     67.01% # Class of executed instruction. (Count)
system.cpu.exec_context.thread_0.statExecutedInstType::SimdFloatDiv            8      0.00%     67.01% # Class of executed instruction. (Count)
system.cpu.exec_context.thread_0.statExecutedInstType::SimdFloatMisc            0      0.00%     67.01% # Class of executed instruction. (Count)
system.cpu.exec_context.thread_0.statExecutedInstType::SimdFloatMult            8      0.00%     67.01% # Class of executed instruction. (Count)
system.cpu.exec_context.thread_0.statExecutedInstType::SimdFloatMultAcc            0      0.00%     67.01% # Class of executed instruction. (Count)
system.cpu.exec_context.thread_0.statExecutedInstType::SimdFloatSqrt            0      0.00%     67.01% # Class of executed instruction. (Count)
system.cpu.exec_context.thread_0.statExecutedInstType::SimdReduceAdd            0      0.00%     67.01% # Class of executed instruction. (Count)
system.cpu.exec_context.thread_0.statExecutedInstType::SimdReduceAlu            0      0.00%     67.01% # Class of executed instruction. (Count)
system.cpu.exec_context.thread_0.statExecutedInstType::SimdReduceCmp            0      0.00%     67.01% # Class of executed instruction. (Count)
system.cpu.exec_context.thread_0.statExecutedInstType::SimdFloatReduceAdd            0      0.00%     67.01% # Class of executed instruction. (Count)
system.cpu.exec_context.thread_0.statExecutedInstType::SimdFloatReduceCmp            0      0.00%     67.01% # Class of executed instruction. (Count)
system.cpu.exec_context.thread_0.statExecutedInstType::SimdAes            0      0.00%     67.01% # Class of executed instruction. (Count)
system.cpu.exec_context.thread_0.statExecutedInstType::SimdAesMix            0      0.00%     67.01% # Class of executed instruction. (Count)
system.cpu.exec_context.thread_0.statExecutedInstType::SimdSha1Hash            0      0.00%     67.01% # Class of executed instruction. (Count)
system.cpu.exec_context.thread_0.statExecutedInstType::SimdSha1Hash2            0      0.00%     67.01% # Class of executed instruction. (Count)
system.cpu.exec_context.thread_0.statExecutedInstType::SimdSha256Hash            0      0.00%     67.01% # Class of executed instruction. (Count)
system.cpu.exec_context.thread_0.statExecutedInstType::SimdSha256Hash2            0      0.00%     67.01% # Class of executed instruction. (Count)
system.cpu.exec_context.thread_0.statExecutedInstType::SimdShaSigma2            0      0.00%     67.01% # Class of executed instruction. (Count)
system.cpu.exec_context.thread_0.statExecutedInstType::SimdShaSigma3            0      0.00%     67.01% # Class of executed instruction. (Count)
system.cpu.exec_context.thread_0.statExecutedInstType::SimdPredAlu            0      0.00%     67.01% # Class of executed instruction. (Count)
system.cpu.exec_context.thread_0.statExecutedInstType::MemRead    157238486     19.10%     86.10% # Class of executed instruction. (Count)
system.cpu.exec_context.thread_0.statExecutedInstType::MemWrite     48062427      5.84%     91.94% # Class of executed instruction. (Count)
system.cpu.exec_context.thread_0.statExecutedInstType::FloatMemRead         4907      0.00%     91.94% # Class of executed instruction. (Count)
system.cpu.exec_context.thread_0.statExecutedInstType::FloatMemWrite     66366480      8.06%    100.00% # Class of executed instruction. (Count)
system.cpu.exec_context.thread_0.statExecutedInstType::IprAccess            0      0.00%    100.00% # Class of executed instruction. (Count)
system.cpu.exec_context.thread_0.statExecutedInstType::InstPrefetch            0      0.00%    100.00% # Class of executed instruction. (Count)
system.cpu.exec_context.thread_0.statExecutedInstType::total    823381773                       # Class of executed instruction. (Count)
system.cpu.icache.demandHits::cpu.inst      673223517                       # number of demand (read+write) hits (Count)
system.cpu.icache.demandHits::total         673223517                       # number of demand (read+write) hits (Count)
system.cpu.icache.overallHits::cpu.inst     673223517                       # number of overall hits (Count)
system.cpu.icache.overallHits::total        673223517                       # number of overall hits (Count)
system.cpu.icache.demandMisses::cpu.inst      2159649                       # number of demand (read+write) misses (Count)
system.cpu.icache.demandMisses::total         2159649                       # number of demand (read+write) misses (Count)
system.cpu.icache.overallMisses::cpu.inst      2159649                       # number of overall misses (Count)
system.cpu.icache.overallMisses::total        2159649                       # number of overall misses (Count)
system.cpu.icache.demandMissLatency::cpu.inst  56334121000                       # number of demand (read+write) miss ticks (Tick)
system.cpu.icache.demandMissLatency::total  56334121000                       # number of demand (read+write) miss ticks (Tick)
system.cpu.icache.overallMissLatency::cpu.inst  56334121000                       # number of overall miss ticks (Tick)
system.cpu.icache.overallMissLatency::total  56334121000                       # number of overall miss ticks (Tick)
system.cpu.icache.demandAccesses::cpu.inst    675383166                       # number of demand (read+write) accesses (Count)
system.cpu.icache.demandAccesses::total     675383166                       # number of demand (read+write) accesses (Count)
system.cpu.icache.overallAccesses::cpu.inst    675383166                       # number of overall (read+write) accesses (Count)
system.cpu.icache.overallAccesses::total    675383166                       # number of overall (read+write) accesses (Count)
system.cpu.icache.demandMissRate::cpu.inst     0.003198                       # miss rate for demand accesses (Ratio)
system.cpu.icache.demandMissRate::total      0.003198                       # miss rate for demand accesses (Ratio)
system.cpu.icache.overallMissRate::cpu.inst     0.003198                       # miss rate for overall accesses (Ratio)
system.cpu.icache.overallMissRate::total     0.003198                       # miss rate for overall accesses (Ratio)
system.cpu.icache.demandAvgMissLatency::cpu.inst 26084.850362                       # average overall miss latency in ticks ((Tick/Count))
system.cpu.icache.demandAvgMissLatency::total 26084.850362                       # average overall miss latency in ticks ((Tick/Count))
system.cpu.icache.overallAvgMissLatency::cpu.inst 26084.850362                       # average overall miss latency ((Tick/Count))
system.cpu.icache.overallAvgMissLatency::total 26084.850362                       # average overall miss latency ((Tick/Count))
system.cpu.icache.blockedCycles::no_mshrs            0                       # number of cycles access was blocked (Cycle)
system.cpu.icache.blockedCycles::no_targets            0                       # number of cycles access was blocked (Cycle)
system.cpu.icache.blockedCauses::no_mshrs            0                       # number of times access was blocked (Count)
system.cpu.icache.blockedCauses::no_targets            0                       # number of times access was blocked (Count)
system.cpu.icache.avgBlocked::no_mshrs            nan                       # average number of cycles each access was blocked ((Cycle/Count))
system.cpu.icache.avgBlocked::no_targets          nan                       # average number of cycles each access was blocked ((Cycle/Count))
system.cpu.icache.demandMshrMisses::cpu.inst      2159649                       # number of demand (read+write) MSHR misses (Count)
system.cpu.icache.demandMshrMisses::total      2159649                       # number of demand (read+write) MSHR misses (Count)
system.cpu.icache.overallMshrMisses::cpu.inst      2159649                       # number of overall MSHR misses (Count)
system.cpu.icache.overallMshrMisses::total      2159649                       # number of overall MSHR misses (Count)
system.cpu.icache.demandMshrMissLatency::cpu.inst  52014823000                       # number of demand (read+write) MSHR miss ticks (Tick)
system.cpu.icache.demandMshrMissLatency::total  52014823000                       # number of demand (read+write) MSHR miss ticks (Tick)
system.cpu.icache.overallMshrMissLatency::cpu.inst  52014823000                       # number of overall MSHR miss ticks (Tick)
system.cpu.icache.overallMshrMissLatency::total  52014823000                       # number of overall MSHR miss ticks (Tick)
system.cpu.icache.demandMshrMissRate::cpu.inst     0.003198                       # mshr miss ratio for demand accesses (Ratio)
system.cpu.icache.demandMshrMissRate::total     0.003198                       # mshr miss ratio for demand accesses (Ratio)
system.cpu.icache.overallMshrMissRate::cpu.inst     0.003198                       # mshr miss ratio for overall accesses (Ratio)
system.cpu.icache.overallMshrMissRate::total     0.003198                       # mshr miss ratio for overall accesses (Ratio)
system.cpu.icache.demandAvgMshrMissLatency::cpu.inst 24084.850362                       # average overall mshr miss latency ((Tick/Count))
system.cpu.icache.demandAvgMshrMissLatency::total 24084.850362                       # average overall mshr miss latency ((Tick/Count))
system.cpu.icache.overallAvgMshrMissLatency::cpu.inst 24084.850362                       # average overall mshr miss latency ((Tick/Count))
system.cpu.icache.overallAvgMshrMissLatency::total 24084.850362                       # average overall mshr miss latency ((Tick/Count))
system.cpu.icache.replacements                2159137                       # number of replacements (Count)
system.cpu.icache.ReadReq.hits::cpu.inst    673223517                       # number of ReadReq hits (Count)
system.cpu.icache.ReadReq.hits::total       673223517                       # number of ReadReq hits (Count)
system.cpu.icache.ReadReq.misses::cpu.inst      2159649                       # number of ReadReq misses (Count)
system.cpu.icache.ReadReq.misses::total       2159649                       # number of ReadReq misses (Count)
system.cpu.icache.ReadReq.missLatency::cpu.inst  56334121000                       # number of ReadReq miss ticks (Tick)
system.cpu.icache.ReadReq.missLatency::total  56334121000                       # number of ReadReq miss ticks (Tick)
system.cpu.icache.ReadReq.accesses::cpu.inst    675383166                       # number of ReadReq accesses(hits+misses) (Count)
system.cpu.icache.ReadReq.accesses::total    675383166                       # number of ReadReq accesses(hits+misses) (Count)
system.cpu.icache.ReadReq.missRate::cpu.inst     0.003198                       # miss rate for ReadReq accesses (Ratio)
system.cpu.icache.ReadReq.missRate::total     0.003198                       # miss rate for ReadReq accesses (Ratio)
system.cpu.icache.ReadReq.avgMissLatency::cpu.inst 26084.850362                       # average ReadReq miss latency ((Tick/Count))
system.cpu.icache.ReadReq.avgMissLatency::total 26084.850362                       # average ReadReq miss latency ((Tick/Count))
system.cpu.icache.ReadReq.mshrMisses::cpu.inst      2159649                       # number of ReadReq MSHR misses (Count)
system.cpu.icache.ReadReq.mshrMisses::total      2159649                       # number of ReadReq MSHR misses (Count)
system.cpu.icache.ReadReq.mshrMissLatency::cpu.inst  52014823000                       # number of ReadReq MSHR miss ticks (Tick)
system.cpu.icache.ReadReq.mshrMissLatency::total  52014823000                       # number of ReadReq MSHR miss ticks (Tick)
system.cpu.icache.ReadReq.mshrMissRate::cpu.inst     0.003198                       # mshr miss rate for ReadReq accesses (Ratio)
system.cpu.icache.ReadReq.mshrMissRate::total     0.003198                       # mshr miss rate for ReadReq accesses (Ratio)
system.cpu.icache.ReadReq.avgMshrMissLatency::cpu.inst 24084.850362                       # average ReadReq mshr miss latency ((Tick/Count))
system.cpu.icache.ReadReq.avgMshrMissLatency::total 24084.850362                       # average ReadReq mshr miss latency ((Tick/Count))
system.cpu.icache.power_state.pwrStateResidencyTicks::UNDEFINED 2817030058000                       # Cumulative time (in ticks) in various power states (Tick)
system.cpu.icache.tags.tagsInUse           467.548411                       # Average ticks per tags in use ((Tick/Count))
system.cpu.icache.tags.totalRefs            675383166                       # Total number of references to valid blocks. (Count)
system.cpu.icache.tags.sampledRefs            2159649                       # Sample count of references to valid blocks. (Count)
system.cpu.icache.tags.avgRefs             312.728210                       # Average number of references to valid blocks. ((Count/Count))
system.cpu.icache.tags.warmupTick              107000                       # The tick when the warmup percentage was hit. (Tick)
system.cpu.icache.tags.occupancies::cpu.inst   467.548411                       # Average occupied blocks per tick, per requestor ((Count/Tick))
system.cpu.icache.tags.avgOccs::cpu.inst     0.913180                       # Average percentage of cache occupancy ((Ratio/Tick))
system.cpu.icache.tags.avgOccs::total        0.913180                       # Average percentage of cache occupancy ((Ratio/Tick))
system.cpu.icache.tags.occupanciesTaskId::1024          512                       # Occupied blocks per task id (Count)
system.cpu.icache.tags.ageTaskId_1024::0            9                       # Occupied blocks per task id, per block age (Count)
system.cpu.icache.tags.ageTaskId_1024::1           37                       # Occupied blocks per task id, per block age (Count)
system.cpu.icache.tags.ageTaskId_1024::2          142                       # Occupied blocks per task id, per block age (Count)
system.cpu.icache.tags.ageTaskId_1024::3           36                       # Occupied blocks per task id, per block age (Count)
system.cpu.icache.tags.ageTaskId_1024::4          288                       # Occupied blocks per task id, per block age (Count)
system.cpu.icache.tags.ratioOccsTaskId::1024            1                       # Ratio of occupied blocks and all blocks, per task id (Ratio)
system.cpu.icache.tags.tagAccesses         1352925981                       # Number of tag accesses (Count)
system.cpu.icache.tags.dataAccesses        1352925981                       # Number of data accesses (Count)
system.cpu.icache.tags.power_state.pwrStateResidencyTicks::UNDEFINED 2817030058000                       # Cumulative time (in ticks) in various power states (Tick)
system.cpu.interrupts.clk_domain.clock          16000                       # Clock period in ticks (Tick)
system.cpu.mmu.dtb.rdAccesses               157243985                       # TLB accesses on read requests (Count)
system.cpu.mmu.dtb.wrAccesses               114428909                       # TLB accesses on write requests (Count)
system.cpu.mmu.dtb.rdMisses                    187281                       # TLB misses on read requests (Count)
system.cpu.mmu.dtb.wrMisses                    196016                       # TLB misses on write requests (Count)
system.cpu.mmu.dtb.walker.power_state.pwrStateResidencyTicks::UNDEFINED 2817030058000                       # Cumulative time (in ticks) in various power states (Tick)
system.cpu.mmu.itb.rdAccesses                       0                       # TLB accesses on read requests (Count)
system.cpu.mmu.itb.wrAccesses               675383166                       # TLB accesses on write requests (Count)
system.cpu.mmu.itb.rdMisses                         0                       # TLB misses on read requests (Count)
system.cpu.mmu.itb.wrMisses                        75                       # TLB misses on write requests (Count)
system.cpu.mmu.itb.walker.power_state.pwrStateResidencyTicks::UNDEFINED 2817030058000                       # Cumulative time (in ticks) in various power states (Tick)
system.cpu.power_state.pwrStateResidencyTicks::ON 2817030058000                       # Cumulative time (in ticks) in various power states (Tick)
system.cpu.thread_0.numInsts                        0                       # Number of Instructions committed (Count)
system.cpu.thread_0.numOps                          0                       # Number of Ops committed (Count)
system.cpu.thread_0.numMemRefs                      0                       # Number of Memory References (Count)
system.cpu.workload.numSyscalls                   196                       # Number of system calls (Count)
system.l2bus.transDist::ReadResp              2507917                       # Transaction distribution (Count)
system.l2bus.transDist::WritebackDirty       16895086                       # Transaction distribution (Count)
system.l2bus.transDist::CleanEvict            2373241                       # Transaction distribution (Count)
system.l2bus.transDist::ReadExReq             8423266                       # Transaction distribution (Count)
system.l2bus.transDist::ReadExResp            8423266                       # Transaction distribution (Count)
system.l2bus.transDist::ReadSharedReq         2507917                       # Transaction distribution (Count)
system.l2bus.pktCount_system.cpu.icache.mem_side_port::system.l2cache.cpu_side_port      6478435                       # Packet count per connected requestor and responder (Count)
system.l2bus.pktCount_system.cpu.dcache.mem_side_port::system.l2cache.cpu_side_port     26314090                       # Packet count per connected requestor and responder (Count)
system.l2bus.pktCount::total                 32792525                       # Packet count per connected requestor and responder (Count)
system.l2bus.pktSize_system.cpu.icache.mem_side_port::system.l2cache.cpu_side_port    138217536                       # Cumulative packet size per connected requestor and responder (Byte)
system.l2bus.pktSize_system.cpu.dcache.mem_side_port::system.l2cache.cpu_side_port   1109638080                       # Cumulative packet size per connected requestor and responder (Byte)
system.l2bus.pktSize::total                1247855616                       # Cumulative packet size per connected requestor and responder (Byte)
system.l2bus.snoops                           8338168                       # Total snoops (Count)
system.l2bus.snoopTraffic                   533025600                       # Total snoop traffic (Byte)
system.l2bus.snoopFanout::samples            19269351                       # Request fanout histogram (Count)
system.l2bus.snoopFanout::mean               0.000050                       # Request fanout histogram (Count)
system.l2bus.snoopFanout::stdev              0.007040                       # Request fanout histogram (Count)
system.l2bus.snoopFanout::underflows                0      0.00%      0.00% # Request fanout histogram (Count)
system.l2bus.snoopFanout::0                  19268396    100.00%    100.00% # Request fanout histogram (Count)
system.l2bus.snoopFanout::1                       955      0.00%    100.00% # Request fanout histogram (Count)
system.l2bus.snoopFanout::2                         0      0.00%    100.00% # Request fanout histogram (Count)
system.l2bus.snoopFanout::overflows                 0      0.00%    100.00% # Request fanout histogram (Count)
system.l2bus.snoopFanout::min_value                 0                       # Request fanout histogram (Count)
system.l2bus.snoopFanout::max_value                 1                       # Request fanout histogram (Count)
system.l2bus.snoopFanout::total              19269351                       # Request fanout histogram (Count)
system.l2bus.power_state.pwrStateResidencyTicks::UNDEFINED 2817030058000                       # Cumulative time (in ticks) in various power states (Tick)
system.l2bus.reqLayer0.occupancy          38994464000                       # Layer occupancy (ticks) (Tick)
system.l2bus.reqLayer0.utilization                0.0                       # Layer utilization (Ratio)
system.l2bus.respLayer0.occupancy          6478947000                       # Layer occupancy (ticks) (Tick)
system.l2bus.respLayer0.utilization               0.0                       # Layer utilization (Ratio)
system.l2bus.respLayer1.occupancy         26314602000                       # Layer occupancy (ticks) (Tick)
system.l2bus.respLayer1.utilization               0.0                       # Layer utilization (Ratio)
system.l2bus.snoop_filter.totRequests        21861342                       # Total number of requests made to the snoop filter. (Count)
system.l2bus.snoop_filter.hitSingleRequests     10930159                       # Number of requests hitting in the snoop filter with a single holder of the requested data. (Count)
system.l2bus.snoop_filter.hitMultiRequests            1                       # Number of requests hitting in the snoop filter with multiple (>1) holders of the requested data. (Count)
system.l2bus.snoop_filter.totSnoops               954                       # Total number of snoops made to the snoop filter. (Count)
system.l2bus.snoop_filter.hitSingleSnoops          954                       # Number of snoops hitting in the snoop filter with a single holder of the requested data. (Count)
system.l2bus.snoop_filter.hitMultiSnoops            0                       # Number of snoops hitting in the snoop filter with multiple (>1) holders of the requested data. (Count)
system.l2cache.demandHits::cpu.inst           2157443                       # number of demand (read+write) hits (Count)
system.l2cache.demandHits::cpu.data            402816                       # number of demand (read+write) hits (Count)
system.l2cache.demandHits::total              2560259                       # number of demand (read+write) hits (Count)
system.l2cache.overallHits::cpu.inst          2157443                       # number of overall hits (Count)
system.l2cache.overallHits::cpu.data           402816                       # number of overall hits (Count)
system.l2cache.overallHits::total             2560259                       # number of overall hits (Count)
system.l2cache.demandMisses::cpu.inst            2206                       # number of demand (read+write) misses (Count)
system.l2cache.demandMisses::cpu.data         8368718                       # number of demand (read+write) misses (Count)
system.l2cache.demandMisses::total            8370924                       # number of demand (read+write) misses (Count)
system.l2cache.overallMisses::cpu.inst           2206                       # number of overall misses (Count)
system.l2cache.overallMisses::cpu.data        8368718                       # number of overall misses (Count)
system.l2cache.overallMisses::total           8370924                       # number of overall misses (Count)
system.l2cache.demandMissLatency::cpu.inst    226642000                       # number of demand (read+write) miss ticks (Tick)
system.l2cache.demandMissLatency::cpu.data 836218075000                       # number of demand (read+write) miss ticks (Tick)
system.l2cache.demandMissLatency::total  836444717000                       # number of demand (read+write) miss ticks (Tick)
system.l2cache.overallMissLatency::cpu.inst    226642000                       # number of overall miss ticks (Tick)
system.l2cache.overallMissLatency::cpu.data 836218075000                       # number of overall miss ticks (Tick)
system.l2cache.overallMissLatency::total 836444717000                       # number of overall miss ticks (Tick)
system.l2cache.demandAccesses::cpu.inst       2159649                       # number of demand (read+write) accesses (Count)
system.l2cache.demandAccesses::cpu.data       8771534                       # number of demand (read+write) accesses (Count)
system.l2cache.demandAccesses::total         10931183                       # number of demand (read+write) accesses (Count)
system.l2cache.overallAccesses::cpu.inst      2159649                       # number of overall (read+write) accesses (Count)
system.l2cache.overallAccesses::cpu.data      8771534                       # number of overall (read+write) accesses (Count)
system.l2cache.overallAccesses::total        10931183                       # number of overall (read+write) accesses (Count)
system.l2cache.demandMissRate::cpu.inst      0.001021                       # miss rate for demand accesses (Ratio)
system.l2cache.demandMissRate::cpu.data      0.954077                       # miss rate for demand accesses (Ratio)
system.l2cache.demandMissRate::total         0.765784                       # miss rate for demand accesses (Ratio)
system.l2cache.overallMissRate::cpu.inst     0.001021                       # miss rate for overall accesses (Ratio)
system.l2cache.overallMissRate::cpu.data     0.954077                       # miss rate for overall accesses (Ratio)
system.l2cache.overallMissRate::total        0.765784                       # miss rate for overall accesses (Ratio)
system.l2cache.demandAvgMissLatency::cpu.inst 102738.893926                       # average overall miss latency in ticks ((Tick/Count))
system.l2cache.demandAvgMissLatency::cpu.data 99921.884690                       # average overall miss latency in ticks ((Tick/Count))
system.l2cache.demandAvgMissLatency::total 99922.627060                       # average overall miss latency in ticks ((Tick/Count))
system.l2cache.overallAvgMissLatency::cpu.inst 102738.893926                       # average overall miss latency ((Tick/Count))
system.l2cache.overallAvgMissLatency::cpu.data 99921.884690                       # average overall miss latency ((Tick/Count))
system.l2cache.overallAvgMissLatency::total 99922.627060                       # average overall miss latency ((Tick/Count))
system.l2cache.blockedCycles::no_mshrs              0                       # number of cycles access was blocked (Cycle)
system.l2cache.blockedCycles::no_targets            0                       # number of cycles access was blocked (Cycle)
system.l2cache.blockedCauses::no_mshrs              0                       # number of times access was blocked (Count)
system.l2cache.blockedCauses::no_targets            0                       # number of times access was blocked (Count)
system.l2cache.avgBlocked::no_mshrs               nan                       # average number of cycles each access was blocked ((Cycle/Count))
system.l2cache.avgBlocked::no_targets             nan                       # average number of cycles each access was blocked ((Cycle/Count))
system.l2cache.writebacks::writebacks         8328525                       # number of writebacks (Count)
system.l2cache.writebacks::total              8328525                       # number of writebacks (Count)
system.l2cache.demandMshrMisses::cpu.inst         2206                       # number of demand (read+write) MSHR misses (Count)
system.l2cache.demandMshrMisses::cpu.data      8368718                       # number of demand (read+write) MSHR misses (Count)
system.l2cache.demandMshrMisses::total        8370924                       # number of demand (read+write) MSHR misses (Count)
system.l2cache.overallMshrMisses::cpu.inst         2206                       # number of overall MSHR misses (Count)
system.l2cache.overallMshrMisses::cpu.data      8368718                       # number of overall MSHR misses (Count)
system.l2cache.overallMshrMisses::total       8370924                       # number of overall MSHR misses (Count)
system.l2cache.demandMshrMissLatency::cpu.inst    182522000                       # number of demand (read+write) MSHR miss ticks (Tick)
system.l2cache.demandMshrMissLatency::cpu.data 668843715000                       # number of demand (read+write) MSHR miss ticks (Tick)
system.l2cache.demandMshrMissLatency::total 669026237000                       # number of demand (read+write) MSHR miss ticks (Tick)
system.l2cache.overallMshrMissLatency::cpu.inst    182522000                       # number of overall MSHR miss ticks (Tick)
system.l2cache.overallMshrMissLatency::cpu.data 668843715000                       # number of overall MSHR miss ticks (Tick)
system.l2cache.overallMshrMissLatency::total 669026237000                       # number of overall MSHR miss ticks (Tick)
system.l2cache.demandMshrMissRate::cpu.inst     0.001021                       # mshr miss ratio for demand accesses (Ratio)
system.l2cache.demandMshrMissRate::cpu.data     0.954077                       # mshr miss ratio for demand accesses (Ratio)
system.l2cache.demandMshrMissRate::total     0.765784                       # mshr miss ratio for demand accesses (Ratio)
system.l2cache.overallMshrMissRate::cpu.inst     0.001021                       # mshr miss ratio for overall accesses (Ratio)
system.l2cache.overallMshrMissRate::cpu.data     0.954077                       # mshr miss ratio for overall accesses (Ratio)
system.l2cache.overallMshrMissRate::total     0.765784                       # mshr miss ratio for overall accesses (Ratio)
system.l2cache.demandAvgMshrMissLatency::cpu.inst 82738.893926                       # average overall mshr miss latency ((Tick/Count))
system.l2cache.demandAvgMshrMissLatency::cpu.data 79921.884690                       # average overall mshr miss latency ((Tick/Count))
system.l2cache.demandAvgMshrMissLatency::total 79922.627060                       # average overall mshr miss latency ((Tick/Count))
system.l2cache.overallAvgMshrMissLatency::cpu.inst 82738.893926                       # average overall mshr miss latency ((Tick/Count))
system.l2cache.overallAvgMshrMissLatency::cpu.data 79921.884690                       # average overall mshr miss latency ((Tick/Count))
system.l2cache.overallAvgMshrMissLatency::total 79922.627060                       # average overall mshr miss latency ((Tick/Count))
system.l2cache.replacements                   8338168                       # number of replacements (Count)
system.l2cache.CleanEvict.mshrMisses::writebacks          833                       # number of CleanEvict MSHR misses (Count)
system.l2cache.CleanEvict.mshrMisses::total          833                       # number of CleanEvict MSHR misses (Count)
system.l2cache.CleanEvict.mshrMissRate::writebacks          inf                       # mshr miss rate for CleanEvict accesses (Ratio)
system.l2cache.CleanEvict.mshrMissRate::total          inf                       # mshr miss rate for CleanEvict accesses (Ratio)
system.l2cache.ReadExReq.hits::cpu.data        129186                       # number of ReadExReq hits (Count)
system.l2cache.ReadExReq.hits::total           129186                       # number of ReadExReq hits (Count)
system.l2cache.ReadExReq.misses::cpu.data      8294080                       # number of ReadExReq misses (Count)
system.l2cache.ReadExReq.misses::total        8294080                       # number of ReadExReq misses (Count)
system.l2cache.ReadExReq.missLatency::cpu.data 828058230000                       # number of ReadExReq miss ticks (Tick)
system.l2cache.ReadExReq.missLatency::total 828058230000                       # number of ReadExReq miss ticks (Tick)
system.l2cache.ReadExReq.accesses::cpu.data      8423266                       # number of ReadExReq accesses(hits+misses) (Count)
system.l2cache.ReadExReq.accesses::total      8423266                       # number of ReadExReq accesses(hits+misses) (Count)
system.l2cache.ReadExReq.missRate::cpu.data     0.984663                       # miss rate for ReadExReq accesses (Ratio)
system.l2cache.ReadExReq.missRate::total     0.984663                       # miss rate for ReadExReq accesses (Ratio)
system.l2cache.ReadExReq.avgMissLatency::cpu.data 99837.261034                       # average ReadExReq miss latency ((Tick/Count))
system.l2cache.ReadExReq.avgMissLatency::total 99837.261034                       # average ReadExReq miss latency ((Tick/Count))
system.l2cache.ReadExReq.mshrMisses::cpu.data      8294080                       # number of ReadExReq MSHR misses (Count)
system.l2cache.ReadExReq.mshrMisses::total      8294080                       # number of ReadExReq MSHR misses (Count)
system.l2cache.ReadExReq.mshrMissLatency::cpu.data 662176630000                       # number of ReadExReq MSHR miss ticks (Tick)
system.l2cache.ReadExReq.mshrMissLatency::total 662176630000                       # number of ReadExReq MSHR miss ticks (Tick)
system.l2cache.ReadExReq.mshrMissRate::cpu.data     0.984663                       # mshr miss rate for ReadExReq accesses (Ratio)
system.l2cache.ReadExReq.mshrMissRate::total     0.984663                       # mshr miss rate for ReadExReq accesses (Ratio)
system.l2cache.ReadExReq.avgMshrMissLatency::cpu.data 79837.261034                       # average ReadExReq mshr miss latency ((Tick/Count))
system.l2cache.ReadExReq.avgMshrMissLatency::total 79837.261034                       # average ReadExReq mshr miss latency ((Tick/Count))
system.l2cache.ReadSharedReq.hits::cpu.inst      2157443                       # number of ReadSharedReq hits (Count)
system.l2cache.ReadSharedReq.hits::cpu.data       273630                       # number of ReadSharedReq hits (Count)
system.l2cache.ReadSharedReq.hits::total      2431073                       # number of ReadSharedReq hits (Count)
system.l2cache.ReadSharedReq.misses::cpu.inst         2206                       # number of ReadSharedReq misses (Count)
system.l2cache.ReadSharedReq.misses::cpu.data        74638                       # number of ReadSharedReq misses (Count)
system.l2cache.ReadSharedReq.misses::total        76844                       # number of ReadSharedReq misses (Count)
system.l2cache.ReadSharedReq.missLatency::cpu.inst    226642000                       # number of ReadSharedReq miss ticks (Tick)
system.l2cache.ReadSharedReq.missLatency::cpu.data   8159845000                       # number of ReadSharedReq miss ticks (Tick)
system.l2cache.ReadSharedReq.missLatency::total   8386487000                       # number of ReadSharedReq miss ticks (Tick)
system.l2cache.ReadSharedReq.accesses::cpu.inst      2159649                       # number of ReadSharedReq accesses(hits+misses) (Count)
system.l2cache.ReadSharedReq.accesses::cpu.data       348268                       # number of ReadSharedReq accesses(hits+misses) (Count)
system.l2cache.ReadSharedReq.accesses::total      2507917                       # number of ReadSharedReq accesses(hits+misses) (Count)
system.l2cache.ReadSharedReq.missRate::cpu.inst     0.001021                       # miss rate for ReadSharedReq accesses (Ratio)
system.l2cache.ReadSharedReq.missRate::cpu.data     0.214312                       # miss rate for ReadSharedReq accesses (Ratio)
system.l2cache.ReadSharedReq.missRate::total     0.030641                       # miss rate for ReadSharedReq accesses (Ratio)
system.l2cache.ReadSharedReq.avgMissLatency::cpu.inst 102738.893926                       # average ReadSharedReq miss latency ((Tick/Count))
system.l2cache.ReadSharedReq.avgMissLatency::cpu.data 109325.611619                       # average ReadSharedReq miss latency ((Tick/Count))
system.l2cache.ReadSharedReq.avgMissLatency::total 109136.523346                       # average ReadSharedReq miss latency ((Tick/Count))
system.l2cache.ReadSharedReq.mshrMisses::cpu.inst         2206                       # number of ReadSharedReq MSHR misses (Count)
system.l2cache.ReadSharedReq.mshrMisses::cpu.data        74638                       # number of ReadSharedReq MSHR misses (Count)
system.l2cache.ReadSharedReq.mshrMisses::total        76844                       # number of ReadSharedReq MSHR misses (Count)
system.l2cache.ReadSharedReq.mshrMissLatency::cpu.inst    182522000                       # number of ReadSharedReq MSHR miss ticks (Tick)
system.l2cache.ReadSharedReq.mshrMissLatency::cpu.data   6667085000                       # number of ReadSharedReq MSHR miss ticks (Tick)
system.l2cache.ReadSharedReq.mshrMissLatency::total   6849607000                       # number of ReadSharedReq MSHR miss ticks (Tick)
system.l2cache.ReadSharedReq.mshrMissRate::cpu.inst     0.001021                       # mshr miss rate for ReadSharedReq accesses (Ratio)
system.l2cache.ReadSharedReq.mshrMissRate::cpu.data     0.214312                       # mshr miss rate for ReadSharedReq accesses (Ratio)
system.l2cache.ReadSharedReq.mshrMissRate::total     0.030641                       # mshr miss rate for ReadSharedReq accesses (Ratio)
system.l2cache.ReadSharedReq.avgMshrMissLatency::cpu.inst 82738.893926                       # average ReadSharedReq mshr miss latency ((Tick/Count))
system.l2cache.ReadSharedReq.avgMshrMissLatency::cpu.data 89325.611619                       # average ReadSharedReq mshr miss latency ((Tick/Count))
system.l2cache.ReadSharedReq.avgMshrMissLatency::total 89136.523346                       # average ReadSharedReq mshr miss latency ((Tick/Count))
system.l2cache.WritebackDirty.hits::writebacks      8566561                       # number of WritebackDirty hits (Count)
system.l2cache.WritebackDirty.hits::total      8566561                       # number of WritebackDirty hits (Count)
system.l2cache.WritebackDirty.accesses::writebacks      8566561                       # number of WritebackDirty accesses(hits+misses) (Count)
system.l2cache.WritebackDirty.accesses::total      8566561                       # number of WritebackDirty accesses(hits+misses) (Count)
system.l2cache.power_state.pwrStateResidencyTicks::UNDEFINED 2817030058000                       # Cumulative time (in ticks) in various power states (Tick)
system.l2cache.tags.tagsInUse            32584.655563                       # Average ticks per tags in use ((Tick/Count))
system.l2cache.tags.totalRefs                21860508                       # Total number of references to valid blocks. (Count)
system.l2cache.tags.sampledRefs               8370936                       # Sample count of references to valid blocks. (Count)
system.l2cache.tags.avgRefs                  2.611477                       # Average number of references to valid blocks. ((Count/Count))
system.l2cache.tags.warmupTick                  86000                       # The tick when the warmup percentage was hit. (Tick)
system.l2cache.tags.occupancies::writebacks     2.759843                       # Average occupied blocks per tick, per requestor ((Count/Tick))
system.l2cache.tags.occupancies::cpu.inst   573.488957                       # Average occupied blocks per tick, per requestor ((Count/Tick))
system.l2cache.tags.occupancies::cpu.data 32008.406764                       # Average occupied blocks per tick, per requestor ((Count/Tick))
system.l2cache.tags.avgOccs::writebacks      0.000084                       # Average percentage of cache occupancy ((Ratio/Tick))
system.l2cache.tags.avgOccs::cpu.inst        0.017501                       # Average percentage of cache occupancy ((Ratio/Tick))
system.l2cache.tags.avgOccs::cpu.data        0.976819                       # Average percentage of cache occupancy ((Ratio/Tick))
system.l2cache.tags.avgOccs::total           0.994405                       # Average percentage of cache occupancy ((Ratio/Tick))
system.l2cache.tags.occupanciesTaskId::1024        32768                       # Occupied blocks per task id (Count)
system.l2cache.tags.ageTaskId_1024::1               3                       # Occupied blocks per task id, per block age (Count)
system.l2cache.tags.ageTaskId_1024::2              40                       # Occupied blocks per task id, per block age (Count)
system.l2cache.tags.ageTaskId_1024::3             387                       # Occupied blocks per task id, per block age (Count)
system.l2cache.tags.ageTaskId_1024::4           32338                       # Occupied blocks per task id, per block age (Count)
system.l2cache.tags.ratioOccsTaskId::1024            1                       # Ratio of occupied blocks and all blocks, per task id (Ratio)
system.l2cache.tags.tagAccesses             183261664                       # Number of tag accesses (Count)
system.l2cache.tags.dataAccesses            183261664                       # Number of data accesses (Count)
system.l2cache.tags.power_state.pwrStateResidencyTicks::UNDEFINED 2817030058000                       # Cumulative time (in ticks) in various power states (Tick)
system.mem_ctrl.avgPriority_writebacks::samples   8328525.00                       # Average QoS priority value for accepted requests (Count)
system.mem_ctrl.avgPriority_cpu.inst::samples      2206.00                       # Average QoS priority value for accepted requests (Count)
system.mem_ctrl.avgPriority_cpu.data::samples   8368705.00                       # Average QoS priority value for accepted requests (Count)
system.mem_ctrl.priorityMinLatency       0.000000018750                       # per QoS priority minimum request to response latency (Second)
system.mem_ctrl.priorityMaxLatency       0.038350630500                       # per QoS priority maximum request to response latency (Second)
system.mem_ctrl.numReadWriteTurnArounds        519173                       # Number of turnarounds from READ to WRITE (Count)
system.mem_ctrl.numWriteReadTurnArounds        519173                       # Number of turnarounds from WRITE to READ (Count)
system.mem_ctrl.numStayReadState             25275158                       # Number of times bus staying in READ state (Count)
system.mem_ctrl.numStayWriteState             7809609                       # Number of times bus staying in WRITE state (Count)
system.mem_ctrl.readReqs                      8370924                       # Number of read requests accepted (Count)
system.mem_ctrl.writeReqs                     8328525                       # Number of write requests accepted (Count)
system.mem_ctrl.readBursts                    8370924                       # Number of controller read bursts, including those serviced by the write queue (Count)
system.mem_ctrl.writeBursts                   8328525                       # Number of controller write bursts, including those merged in the write queue (Count)
system.mem_ctrl.servicedByWrQ                      13                       # Number of controller read bursts serviced by the write queue (Count)
system.mem_ctrl.mergedWrBursts                      0                       # Number of controller write bursts merged with an existing one (Count)
system.mem_ctrl.neitherReadNorWriteReqs             0                       # Number of requests that are neither read nor write (Count)
system.mem_ctrl.avgRdQLen                        1.00                       # Average read queue length when enqueuing ((Count/Tick))
system.mem_ctrl.avgWrQLen                       24.91                       # Average write queue length when enqueuing ((Count/Tick))
system.mem_ctrl.numRdRetry                          0                       # Number of times read queue was full causing retry (Count)
system.mem_ctrl.numWrRetry                          0                       # Number of times write queue was full causing retry (Count)
system.mem_ctrl.readPktSize::0                      0                       # Read request sizes (log2) (Count)
system.mem_ctrl.readPktSize::1                      0                       # Read request sizes (log2) (Count)
system.mem_ctrl.readPktSize::2                      0                       # Read request sizes (log2) (Count)
system.mem_ctrl.readPktSize::3                      0                       # Read request sizes (log2) (Count)
system.mem_ctrl.readPktSize::4                      0                       # Read request sizes (log2) (Count)
system.mem_ctrl.readPktSize::5                      0                       # Read request sizes (log2) (Count)
system.mem_ctrl.readPktSize::6                8370924                       # Read request sizes (log2) (Count)
system.mem_ctrl.writePktSize::0                     0                       # Write request sizes (log2) (Count)
system.mem_ctrl.writePktSize::1                     0                       # Write request sizes (log2) (Count)
system.mem_ctrl.writePktSize::2                     0                       # Write request sizes (log2) (Count)
system.mem_ctrl.writePktSize::3                     0                       # Write request sizes (log2) (Count)
system.mem_ctrl.writePktSize::4                     0                       # Write request sizes (log2) (Count)
system.mem_ctrl.writePktSize::5                     0                       # Write request sizes (log2) (Count)
system.mem_ctrl.writePktSize::6               8328525                       # Write request sizes (log2) (Count)
system.mem_ctrl.rdQLenPdf::0                  8370910                       # What read queue length does an incoming req see (Count)
system.mem_ctrl.rdQLenPdf::1                        1                       # What read queue length does an incoming req see (Count)
system.mem_ctrl.rdQLenPdf::2                        0                       # What read queue length does an incoming req see (Count)
system.mem_ctrl.rdQLenPdf::3                        0                       # What read queue length does an incoming req see (Count)
system.mem_ctrl.rdQLenPdf::4                        0                       # What read queue length does an incoming req see (Count)
system.mem_ctrl.rdQLenPdf::5                        0                       # What read queue length does an incoming req see (Count)
system.mem_ctrl.rdQLenPdf::6                        0                       # What read queue length does an incoming req see (Count)
system.mem_ctrl.rdQLenPdf::7                        0                       # What read queue length does an incoming req see (Count)
system.mem_ctrl.rdQLenPdf::8                        0                       # What read queue length does an incoming req see (Count)
system.mem_ctrl.rdQLenPdf::9                        0                       # What read queue length does an incoming req see (Count)
system.mem_ctrl.rdQLenPdf::10                       0                       # What read queue length does an incoming req see (Count)
system.mem_ctrl.rdQLenPdf::11                       0                       # What read queue length does an incoming req see (Count)
system.mem_ctrl.rdQLenPdf::12                       0                       # What read queue length does an incoming req see (Count)
system.mem_ctrl.rdQLenPdf::13                       0                       # What read queue length does an incoming req see (Count)
system.mem_ctrl.rdQLenPdf::14                       0                       # What read queue length does an incoming req see (Count)
system.mem_ctrl.rdQLenPdf::15                       0                       # What read queue length does an incoming req see (Count)
system.mem_ctrl.rdQLenPdf::16                       0                       # What read queue length does an incoming req see (Count)
system.mem_ctrl.rdQLenPdf::17                       0                       # What read queue length does an incoming req see (Count)
system.mem_ctrl.rdQLenPdf::18                       0                       # What read queue length does an incoming req see (Count)
system.mem_ctrl.rdQLenPdf::19                       0                       # What read queue length does an incoming req see (Count)
system.mem_ctrl.rdQLenPdf::20                       0                       # What read queue length does an incoming req see (Count)
system.mem_ctrl.rdQLenPdf::21                       0                       # What read queue length does an incoming req see (Count)
system.mem_ctrl.rdQLenPdf::22                       0                       # What read queue length does an incoming req see (Count)
system.mem_ctrl.rdQLenPdf::23                       0                       # What read queue length does an incoming req see (Count)
system.mem_ctrl.rdQLenPdf::24                       0                       # What read queue length does an incoming req see (Count)
system.mem_ctrl.rdQLenPdf::25                       0                       # What read queue length does an incoming req see (Count)
system.mem_ctrl.rdQLenPdf::26                       0                       # What read queue length does an incoming req see (Count)
system.mem_ctrl.rdQLenPdf::27                       0                       # What read queue length does an incoming req see (Count)
system.mem_ctrl.rdQLenPdf::28                       0                       # What read queue length does an incoming req see (Count)
system.mem_ctrl.rdQLenPdf::29                       0                       # What read queue length does an incoming req see (Count)
system.mem_ctrl.rdQLenPdf::30                       0                       # What read queue length does an incoming req see (Count)
system.mem_ctrl.rdQLenPdf::31                       0                       # What read queue length does an incoming req see (Count)
system.mem_ctrl.wrQLenPdf::0                        1                       # What write queue length does an incoming req see (Count)
system.mem_ctrl.wrQLenPdf::1                        1                       # What write queue length does an incoming req see (Count)
system.mem_ctrl.wrQLenPdf::2                        1                       # What write queue length does an incoming req see (Count)
system.mem_ctrl.wrQLenPdf::3                        1                       # What write queue length does an incoming req see (Count)
system.mem_ctrl.wrQLenPdf::4                        1                       # What write queue length does an incoming req see (Count)
system.mem_ctrl.wrQLenPdf::5                        1                       # What write queue length does an incoming req see (Count)
system.mem_ctrl.wrQLenPdf::6                        1                       # What write queue length does an incoming req see (Count)
system.mem_ctrl.wrQLenPdf::7                        1                       # What write queue length does an incoming req see (Count)
system.mem_ctrl.wrQLenPdf::8                        1                       # What write queue length does an incoming req see (Count)
system.mem_ctrl.wrQLenPdf::9                        1                       # What write queue length does an incoming req see (Count)
system.mem_ctrl.wrQLenPdf::10                       1                       # What write queue length does an incoming req see (Count)
system.mem_ctrl.wrQLenPdf::11                       1                       # What write queue length does an incoming req see (Count)
system.mem_ctrl.wrQLenPdf::12                       1                       # What write queue length does an incoming req see (Count)
system.mem_ctrl.wrQLenPdf::13                       1                       # What write queue length does an incoming req see (Count)
system.mem_ctrl.wrQLenPdf::14                       1                       # What write queue length does an incoming req see (Count)
system.mem_ctrl.wrQLenPdf::15                    6259                       # What write queue length does an incoming req see (Count)
system.mem_ctrl.wrQLenPdf::16                   10803                       # What write queue length does an incoming req see (Count)
system.mem_ctrl.wrQLenPdf::17                  519225                       # What write queue length does an incoming req see (Count)
system.mem_ctrl.wrQLenPdf::18                  519174                       # What write queue length does an incoming req see (Count)
system.mem_ctrl.wrQLenPdf::19                  519175                       # What write queue length does an incoming req see (Count)
system.mem_ctrl.wrQLenPdf::20                  519210                       # What write queue length does an incoming req see (Count)
system.mem_ctrl.wrQLenPdf::21                  519253                       # What write queue length does an incoming req see (Count)
system.mem_ctrl.wrQLenPdf::22                  519216                       # What write queue length does an incoming req see (Count)
system.mem_ctrl.wrQLenPdf::23                  523637                       # What write queue length does an incoming req see (Count)
system.mem_ctrl.wrQLenPdf::24                  519173                       # What write queue length does an incoming req see (Count)
system.mem_ctrl.wrQLenPdf::25                  519173                       # What write queue length does an incoming req see (Count)
system.mem_ctrl.wrQLenPdf::26                  519173                       # What write queue length does an incoming req see (Count)
system.mem_ctrl.wrQLenPdf::27                  519174                       # What write queue length does an incoming req see (Count)
system.mem_ctrl.wrQLenPdf::28                  519173                       # What write queue length does an incoming req see (Count)
[...]
system.mem_ctrl.dram.bytesWritten::total    533025600                       # Number of bytes written to this memory (Byte)
system.mem_ctrl.dram.numReads::cpu.inst          2206                       # Number of read requests responded to by this memory (Count)
system.mem_ctrl.dram.numReads::cpu.data       8368718                       # Number of read requests responded to by this memory (Count)
system.mem_ctrl.dram.numReads::total          8370924                       # Number of read requests responded to by this memory (Count)
system.mem_ctrl.dram.numWrites::writebacks      8328525                       # Number of write requests responded to by this memory (Count)
system.mem_ctrl.dram.numWrites::total         8328525                       # Number of write requests responded to by this memory (Count)
system.mem_ctrl.dram.bwRead::cpu.inst           50118                       # Total read bandwidth from this memory ((Byte/Second))
system.mem_ctrl.dram.bwRead::cpu.data       190128590                       # Total read bandwidth from this memory ((Byte/Second))
system.mem_ctrl.dram.bwRead::total          190178708                       # Total read bandwidth from this memory ((Byte/Second))
system.mem_ctrl.dram.bwInstRead::cpu.inst        50118                       # Instruction read bandwidth from this memory ((Byte/Second))
system.mem_ctrl.dram.bwInstRead::total          50118                       # Instruction read bandwidth from this memory ((Byte/Second))
system.mem_ctrl.dram.bwWrite::writebacks    189215446                       # Write bandwidth from this memory ((Byte/Second))
system.mem_ctrl.dram.bwWrite::total         189215446                       # Write bandwidth from this memory ((Byte/Second))
system.mem_ctrl.dram.bwTotal::writebacks    189215446                       # Total bandwidth to/from this memory ((Byte/Second))
system.mem_ctrl.dram.bwTotal::cpu.inst          50118                       # Total bandwidth to/from this memory ((Byte/Second))
system.mem_ctrl.dram.bwTotal::cpu.data      190128590                       # Total bandwidth to/from this memory ((Byte/Second))
system.mem_ctrl.dram.bwTotal::total         379394154                       # Total bandwidth to/from this memory ((Byte/Second))
system.mem_ctrl.dram.readBursts               8370911                       # Number of DRAM read bursts (Count)
system.mem_ctrl.dram.writeBursts              8328501                       # Number of DRAM write bursts (Count)
system.mem_ctrl.dram.perBankRdBursts::0        522951                       # Per bank write bursts (Count)
system.mem_ctrl.dram.perBankRdBursts::1        523071                       # Per bank write bursts (Count)
system.mem_ctrl.dram.perBankRdBursts::2        522895                       # Per bank write bursts (Count)
system.mem_ctrl.dram.perBankRdBursts::3        523278                       # Per bank write bursts (Count)
system.mem_ctrl.dram.perBankRdBursts::4        523374                       # Per bank write bursts (Count)
system.mem_ctrl.dram.perBankRdBursts::5        523210                       # Per bank write bursts (Count)
system.mem_ctrl.dram.perBankRdBursts::6        523218                       # Per bank write bursts (Count)
system.mem_ctrl.dram.perBankRdBursts::7        522969                       # Per bank write bursts (Count)
system.mem_ctrl.dram.perBankRdBursts::8        522970                       # Per bank write bursts (Count)
system.mem_ctrl.dram.perBankRdBursts::9        522996                       # Per bank write bursts (Count)
system.mem_ctrl.dram.perBankRdBursts::10       523236                       # Per bank write bursts (Count)
system.mem_ctrl.dram.perBankRdBursts::11       523499                       # Per bank write bursts (Count)
system.mem_ctrl.dram.perBankRdBursts::12       523193                       # Per bank write bursts (Count)
system.mem_ctrl.dram.perBankRdBursts::13       523390                       # Per bank write bursts (Count)
system.mem_ctrl.dram.perBankRdBursts::14       523406                       # Per bank write bursts (Count)
system.mem_ctrl.dram.perBankRdBursts::15       523255                       # Per bank write bursts (Count)
system.mem_ctrl.dram.perBankWrBursts::0        520300                       # Per bank write bursts (Count)
system.mem_ctrl.dram.perBankWrBursts::1        520475                       # Per bank write bursts (Count)
system.mem_ctrl.dram.perBankWrBursts::2        520344                       # Per bank write bursts (Count)
system.mem_ctrl.dram.perBankWrBursts::3        520604                       # Per bank write bursts (Count)
system.mem_ctrl.dram.perBankWrBursts::4        520597                       # Per bank write bursts (Count)
system.mem_ctrl.dram.perBankWrBursts::5        520486                       # Per bank write bursts (Count)
system.mem_ctrl.dram.perBankWrBursts::6        520583                       # Per bank write bursts (Count)
system.mem_ctrl.dram.perBankWrBursts::7        520226                       # Per bank write bursts (Count)
system.mem_ctrl.dram.perBankWrBursts::8        520391                       # Per bank write bursts (Count)
system.mem_ctrl.dram.perBankWrBursts::9        520352                       # Per bank write bursts (Count)
system.mem_ctrl.dram.perBankWrBursts::10       520548                       # Per bank write bursts (Count)
system.mem_ctrl.dram.perBankWrBursts::11       520830                       # Per bank write bursts (Count)
system.mem_ctrl.dram.perBankWrBursts::12       520568                       # Per bank write bursts (Count)
system.mem_ctrl.dram.perBankWrBursts::13       520753                       # Per bank write bursts (Count)
system.mem_ctrl.dram.perBankWrBursts::14       520849                       # Per bank write bursts (Count)
system.mem_ctrl.dram.perBankWrBursts::15       520595                       # Per bank write bursts (Count)
system.mem_ctrl.dram.totQLat              82947717250                       # Total ticks spent queuing (Tick)
system.mem_ctrl.dram.totBusLat            41854555000                       # Total ticks spent in databus transfers (Tick)
system.mem_ctrl.dram.totMemAccLat        239902298500                       # Total ticks spent from burst creation until serviced by the DRAM (Tick)
system.mem_ctrl.dram.avgQLat                  9909.04                       # Average queueing delay per DRAM burst ((Tick/Count))
system.mem_ctrl.dram.avgBusLat                5000.00                       # Average bus latency per DRAM burst ((Tick/Count))
system.mem_ctrl.dram.avgMemAccLat            28659.04                       # Average memory access latency per DRAM burst ((Tick/Count))
system.mem_ctrl.dram.readRowHits              7563831                       # Number of row buffer hits during reads (Count)
system.mem_ctrl.dram.writeRowHits             7675299                       # Number of row buffer hits during writes (Count)
system.mem_ctrl.dram.readRowHitRate             90.36                       # Row buffer hit rate for reads (Ratio)
system.mem_ctrl.dram.writeRowHitRate            92.16                       # Row buffer hit rate for writes (Ratio)
system.mem_ctrl.dram.bytesPerActivate::samples      1460282                       # Bytes accessed per row activation (Byte)
system.mem_ctrl.dram.bytesPerActivate::mean   731.887655                       # Bytes accessed per row activation (Byte)
system.mem_ctrl.dram.bytesPerActivate::gmean   537.712525                       # Bytes accessed per row activation (Byte)
system.mem_ctrl.dram.bytesPerActivate::stdev   377.609960                       # Bytes accessed per row activation (Byte)
system.mem_ctrl.dram.bytesPerActivate::0-127       193946     13.28%     13.28% # Bytes accessed per row activation (Byte)
system.mem_ctrl.dram.bytesPerActivate::128-255        90234      6.18%     19.46% # Bytes accessed per row activation (Byte)
system.mem_ctrl.dram.bytesPerActivate::256-383        60039      4.11%     23.57% # Bytes accessed per row activation (Byte)
system.mem_ctrl.dram.bytesPerActivate::384-511        77286      5.29%     28.86% # Bytes accessed per row activation (Byte)
system.mem_ctrl.dram.bytesPerActivate::512-639        59371      4.07%     32.93% # Bytes accessed per row activation (Byte)
system.mem_ctrl.dram.bytesPerActivate::640-767        76045      5.21%     38.14% # Bytes accessed per row activation (Byte)
system.mem_ctrl.dram.bytesPerActivate::768-895        50414      3.45%     41.59% # Bytes accessed per row activation (Byte)
system.mem_ctrl.dram.bytesPerActivate::896-1023        61394      4.20%     45.79% # Bytes accessed per row activation (Byte)
system.mem_ctrl.dram.bytesPerActivate::1024-1151       791553     54.21%    100.00% # Bytes accessed per row activation (Byte)
system.mem_ctrl.dram.bytesPerActivate::total      1460282                       # Bytes accessed per row activation (Byte)
system.mem_ctrl.dram.bytesRead              535738304                       # Total bytes read (Byte)
system.mem_ctrl.dram.bytesWritten           533024064                       # Total bytes written (Byte)
system.mem_ctrl.dram.avgRdBW               190.178412                       # Average DRAM read bandwidth in MiBytes/s ((Byte/Second))
system.mem_ctrl.dram.avgWrBW               189.214901                       # Average DRAM write bandwidth in MiBytes/s ((Byte/Second))
system.mem_ctrl.dram.peakBW                  12800.00                       # Theoretical peak bandwidth in MiByte/s ((Byte/Second))
system.mem_ctrl.dram.busUtil                     2.96                       # Data bus utilization in percentage (Ratio)
system.mem_ctrl.dram.busUtilRead                 1.49                       # Data bus utilization in percentage for reads (Ratio)
system.mem_ctrl.dram.busUtilWrite                1.48                       # Data bus utilization in percentage for writes (Ratio)
system.mem_ctrl.dram.pageHitRate                91.26                       # Row buffer hit rate, read and write combined (Ratio)
system.mem_ctrl.dram.power_state.pwrStateResidencyTicks::UNDEFINED 2817030058000                       # Cumulative time (in ticks) in various power states (Tick)
system.mem_ctrl.dram.rank0.actEnergy       5209044120                       # Energy for activate commands per rank (pJ) (Joule)
system.mem_ctrl.dram.rank0.preEnergy       2768672610                       # Energy for precharge commands per rank (pJ) (Joule)
system.mem_ctrl.dram.rank0.readEnergy     29880657240                       # Energy for read commands per rank (pJ) (Joule)
system.mem_ctrl.dram.rank0.writeEnergy    21734070300                       # Energy for write commands per rank (pJ) (Joule)
system.mem_ctrl.dram.rank0.refreshEnergy 222373678800.000031                       # Energy for refresh commands per rank (pJ) (Joule)
system.mem_ctrl.dram.rank0.actBackEnergy 353748391410                       # Energy for active background per rank (pJ) (Joule)
system.mem_ctrl.dram.rank0.preBackEnergy 783846160320                       # Energy for precharge background per rank (pJ) (Joule)
system.mem_ctrl.dram.rank0.actPowerDownEnergy            0                       # Energy for active power-down per rank (pJ) (Joule)
system.mem_ctrl.dram.rank0.prePowerDownEnergy            0                       # Energy for precharge power-down per rank (pJ) (Joule)
system.mem_ctrl.dram.rank0.selfRefreshEnergy            0                       # Energy for self refresh per rank (pJ) (Joule)
system.mem_ctrl.dram.rank0.totalEnergy   1419560674800                       # Total energy per rank (pJ) (Joule)
system.mem_ctrl.dram.rank0.averagePower    503.921025                       # Core power per rank (mW) (Watt)
system.mem_ctrl.dram.rank0.totalIdleTime            0                       # Total Idle time Per DRAM Rank (Tick)
system.mem_ctrl.dram.rank0.pwrStateTime::IDLE 2029720407750                       # Time in different power states (Tick)
system.mem_ctrl.dram.rank0.pwrStateTime::REF  94066700000                       # Time in different power states (Tick)
system.mem_ctrl.dram.rank0.pwrStateTime::SREF            0                       # Time in different power states (Tick)
system.mem_ctrl.dram.rank0.pwrStateTime::PRE_PDN            0                       # Time in different power states (Tick)
system.mem_ctrl.dram.rank0.pwrStateTime::ACT 693242950250                       # Time in different power states (Tick)
system.mem_ctrl.dram.rank0.pwrStateTime::ACT_PDN            0                       # Time in different power states (Tick)
system.mem_ctrl.dram.rank1.actEnergy       5217369360                       # Energy for activate commands per rank (pJ) (Joule)
system.mem_ctrl.dram.rank1.preEnergy       2773097580                       # Energy for precharge commands per rank (pJ) (Joule)
system.mem_ctrl.dram.rank1.readEnergy     29887647300                       # Energy for read commands per rank (pJ) (Joule)
system.mem_ctrl.dram.rank1.writeEnergy    21740704920                       # Energy for write commands per rank (pJ) (Joule)
system.mem_ctrl.dram.rank1.refreshEnergy 222373678800.000031                       # Energy for refresh commands per rank (pJ) (Joule)
system.mem_ctrl.dram.rank1.actBackEnergy 354230594880                       # Energy for active background per rank (pJ) (Joule)
system.mem_ctrl.dram.rank1.preBackEnergy 783440094240                       # Energy for precharge background per rank (pJ) (Joule)
system.mem_ctrl.dram.rank1.actPowerDownEnergy            0                       # Energy for active power-down per rank (pJ) (Joule)
system.mem_ctrl.dram.rank1.prePowerDownEnergy            0                       # Energy for precharge power-down per rank (pJ) (Joule)
system.mem_ctrl.dram.rank1.selfRefreshEnergy            0                       # Energy for self refresh per rank (pJ) (Joule)
system.mem_ctrl.dram.rank1.totalEnergy   1419663187080                       # Total energy per rank (pJ) (Joule)
system.mem_ctrl.dram.rank1.averagePower    503.957415                       # Core power per rank (mW) (Watt)
system.mem_ctrl.dram.rank1.totalIdleTime            0                       # Total Idle time Per DRAM Rank (Tick)
system.mem_ctrl.dram.rank1.pwrStateTime::IDLE 2028653005250                       # Time in different power states (Tick)
system.mem_ctrl.dram.rank1.pwrStateTime::REF  94066700000                       # Time in different power states (Tick)
system.mem_ctrl.dram.rank1.pwrStateTime::SREF            0                       # Time in different power states (Tick)
system.mem_ctrl.dram.rank1.pwrStateTime::PRE_PDN            0                       # Time in different power states (Tick)
system.mem_ctrl.dram.rank1.pwrStateTime::ACT 694310352750                       # Time in different power states (Tick)
system.mem_ctrl.dram.rank1.pwrStateTime::ACT_PDN            0                       # Time in different power states (Tick)
system.mem_ctrl.power_state.pwrStateResidencyTicks::UNDEFINED 2817030058000                       # Cumulative time (in ticks) in various power states (Tick)
system.membus.transDist::ReadResp               76844                       # Transaction distribution (Count)
system.membus.transDist::WritebackDirty       8328525                       # Transaction distribution (Count)
system.membus.transDist::CleanEvict              9522                       # Transaction distribution (Count)
system.membus.transDist::ReadExReq            8294080                       # Transaction distribution (Count)
system.membus.transDist::ReadExResp           8294080                       # Transaction distribution (Count)
system.membus.transDist::ReadSharedReq          76844                       # Transaction distribution (Count)
system.membus.pktCount_system.l2cache.mem_side_port::system.mem_ctrl.port     25079895                       # Packet count per connected requestor and responder (Count)
system.membus.pktCount_system.l2cache.mem_side_port::total     25079895                       # Packet count per connected requestor and responder (Count)
system.membus.pktCount::total                25079895                       # Packet count per connected requestor and responder (Count)
system.membus.pktSize_system.l2cache.mem_side_port::system.mem_ctrl.port   1068764736                       # Cumulative packet size per connected requestor and responder (Byte)
system.membus.pktSize_system.l2cache.mem_side_port::total   1068764736                       # Cumulative packet size per connected requestor and responder (Byte)
system.membus.pktSize::total               1068764736                       # Cumulative packet size per connected requestor and responder (Byte)
system.membus.snoops                                0                       # Total snoops (Count)
system.membus.snoopTraffic                          0                       # Total snoop traffic (Byte)
system.membus.snoopFanout::samples            8370924                       # Request fanout histogram (Count)
system.membus.snoopFanout::mean                     0                       # Request fanout histogram (Count)
system.membus.snoopFanout::stdev                    0                       # Request fanout histogram (Count)
system.membus.snoopFanout::underflows               0      0.00%      0.00% # Request fanout histogram (Count)
system.membus.snoopFanout::0                  8370924    100.00%    100.00% # Request fanout histogram (Count)
system.membus.snoopFanout::1                        0      0.00%    100.00% # Request fanout histogram (Count)
system.membus.snoopFanout::overflows                0      0.00%    100.00% # Request fanout histogram (Count)
system.membus.snoopFanout::min_value                0                       # Request fanout histogram (Count)
system.membus.snoopFanout::max_value                0                       # Request fanout histogram (Count)
system.membus.snoopFanout::total              8370924                       # Request fanout histogram (Count)
system.membus.power_state.pwrStateResidencyTicks::UNDEFINED 2817030058000                       # Cumulative time (in ticks) in various power states (Tick)
system.membus.reqLayer2.occupancy         50023071000                       # Layer occupancy (ticks) (Tick)
system.membus.reqLayer2.utilization               0.0                       # Layer utilization (Ratio)
system.membus.respLayer0.occupancy        44061564000                       # Layer occupancy (ticks) (Tick)
system.membus.respLayer0.utilization              0.0                       # Layer utilization (Ratio)
system.membus.snoop_filter.totRequests       16708971                       # Total number of requests made to the snoop filter. (Count)
system.membus.snoop_filter.hitSingleRequests      8338047                       # Number of requests hitting in the snoop filter with a single holder of the requested data. (Count)
system.membus.snoop_filter.hitMultiRequests            0                       # Number of requests hitting in the snoop filter with multiple (>1) holders of the requested data. (Count)
system.membus.snoop_filter.totSnoops                0                       # Total number of snoops made to the snoop filter. (Count)
system.membus.snoop_filter.hitSingleSnoops            0                       # Number of snoops hitting in the snoop filter with a single holder of the requested data. (Count)
system.membus.snoop_filter.hitMultiSnoops            0                       # Number of snoops hitting in the snoop filter with multiple (>1) holders of the requested data. (Count)
system.workload.inst.arm                            0                       # number of arm instructions executed (Count)
system.workload.inst.quiesce                        0                       # number of quiesce instructions executed (Count)

---------- End Simulation Statistics   ----------
