
---------- Begin Simulation Statistics ----------
simSeconds                                   2.771849                       # Number of seconds simulated (Second)
simTicks                                 2771849434000                       # Number of ticks simulated (Tick)
finalTick                                2771849434000                       # Number of ticks from beginning of simulation (restored from checkpoints and never reset) (Tick)
simFreq                                  1000000000000                       # The number of ticks per simulated second ((Tick/Second))
hostSeconds                                    708.81                       # Real time elapsed on the host (Second)
hostTickRate                               3910555053                       # The number of ticks simulated per host second (ticks/s) ((Tick/Second))
hostMemory                                    8523760                       # Number of bytes of host memory used (Byte)
simInsts                                    500000000                       # Number of instructions simulated (Count)
simOps                                      876313911                       # Number of ops (including micro ops) simulated (Count)
hostInstRate                                   705405                       # Simulator instruction rate (inst/s) ((Count/Second))
hostOpRate                                    1236313                       # Simulator op (including micro ops) rate (op/s) ((Count/Second))
system.clk_domain.clock                          1000                       # Clock period in ticks (Tick)
system.clk_domain.voltage_domain.voltage            1                       # Voltage in Volts (Volt)
system.cpu.numCycles                       2771849434                       # Number of cpu cycles simulated (Cycle)
system.cpu.numWorkItemsStarted                      0                       # Number of work items this cpu started (Count)
system.cpu.numWorkItemsCompleted                    0                       # Number of work items this cpu completed (Count)
system.cpu.branchPred.lookups                97901032                       # Number of BP lookups (Count)
system.cpu.branchPred.condPredicted          75981030                       # Number of conditional branches predicted (Count)
system.cpu.branchPred.condIncorrect          12565295                       # Number of conditional branches incorrect (Count)
system.cpu.branchPred.BTBLookups             50650679                       # Number of BTB lookups (Count)
system.cpu.branchPred.BTBHits                46786503                       # Number of BTB hits (Count)
system.cpu.branchPred.BTBHitRatio            0.923709                       # BTB Hit Ratio (Ratio)
system.cpu.branchPred.RASUsed                 5512621                       # Number of times the RAS was used to get a target. (Count)
system.cpu.branchPred.RASIncorrect                 49                       # Number of incorrect RAS predictions. (Count)
system.cpu.branchPred.indirectLookups          531169                       # Number of indirect predictor lookups. (Count)
system.cpu.branchPred.indirectHits             531074                       # Number of indirect target hits. (Count)
system.cpu.branchPred.indirectMisses               95                       # Number of indirect misses. (Count)
system.cpu.branchPred.indirectMispredicted           96                       # Number of mispredicted indirect branches. (Count)
system.cpu.dcache.demandHits::cpu.data      279672041                       # number of demand (read+write) hits (Count)
system.cpu.dcache.demandHits::total         279672041                       # number of demand (read+write) hits (Count)
system.cpu.dcache.overallHits::cpu.data     279672041                       # number of overall hits (Count)
system.cpu.dcache.overallHits::total        279672041                       # number of overall hits (Count)
system.cpu.dcache.demandMisses::cpu.data     14105769                       # number of demand (read+write) misses (Count)
system.cpu.dcache.demandMisses::total        14105769                       # number of demand (read+write) misses (Count)
system.cpu.dcache.overallMisses::cpu.data     14105769                       # number of overall misses (Count)
system.cpu.dcache.overallMisses::total       14105769                       # number of overall misses (Count)
system.cpu.dcache.demandMissLatency::cpu.data 857786185000                       # number of demand (read+write) miss ticks (Tick)
system.cpu.dcache.demandMissLatency::total 857786185000                       # number of demand (read+write) miss ticks (Tick)
system.cpu.dcache.overallMissLatency::cpu.data 857786185000                       # number of overall miss ticks (Tick)
system.cpu.dcache.overallMissLatency::total 857786185000                       # number of overall miss ticks (Tick)
system.cpu.dcache.demandAccesses::cpu.data    293777810                       # number of demand (read+write) accesses (Count)
system.cpu.dcache.demandAccesses::total     293777810                       # number of demand (read+write) accesses (Count)
system.cpu.dcache.overallAccesses::cpu.data    293777810                       # number of overall (read+write) accesses (Count)
system.cpu.dcache.overallAccesses::total    293777810                       # number of overall (read+write) accesses (Count)
system.cpu.dcache.demandMissRate::cpu.data     0.048015                       # miss rate for demand accesses (Ratio)
system.cpu.dcache.demandMissRate::total      0.048015                       # miss rate for demand accesses (Ratio)
system.cpu.dcache.overallMissRate::cpu.data     0.048015                       # miss rate for overall accesses (Ratio)
system.cpu.dcache.overallMissRate::total     0.048015                       # miss rate for overall accesses (Ratio)
system.cpu.dcache.demandAvgMissLatency::cpu.data 60811.018882                       # average overall miss latency in ticks ((Tick/Count))
system.cpu.dcache.demandAvgMissLatency::total 60811.018882                       # average overall miss latency in ticks ((Tick/Count))
system.cpu.dcache.overallAvgMissLatency::cpu.data 60811.018882                       # average overall miss latency ((Tick/Count))
system.cpu.dcache.overallAvgMissLatency::total 60811.018882                       # average overall miss latency ((Tick/Count))
system.cpu.dcache.blockedCycles::no_mshrs            0                       # number of cycles access was blocked (Cycle)
system.cpu.dcache.blockedCycles::no_targets            0                       # number of cycles access was blocked (Cycle)
system.cpu.dcache.blockedCauses::no_mshrs            0                       # number of times access was blocked (Count)
system.cpu.dcache.blockedCauses::no_targets            0                       # number of times access was blocked (Count)
system.cpu.dcache.avgBlocked::no_mshrs            nan                       # average number of cycles each access was blocked ((Cycle/Count))
system.cpu.dcache.avgBlocked::no_targets          nan                       # average number of cycles each access was blocked ((Cycle/Count))
system.cpu.dcache.writebacks::writebacks      6742590                       # number of writebacks (Count)
system.cpu.dcache.writebacks::total           6742590                       # number of writebacks (Count)
system.cpu.dcache.demandMshrMisses::cpu.data     14105769                       # number of demand (read+write) MSHR misses (Count)
system.cpu.dcache.demandMshrMisses::total     14105769                       # number of demand (read+write) MSHR misses (Count)
system.cpu.dcache.overallMshrMisses::cpu.data     14105769                       # number of overall MSHR misses (Count)
system.cpu.dcache.overallMshrMisses::total     14105769                       # number of overall MSHR misses (Count)
system.cpu.dcache.demandMshrMissLatency::cpu.data 829574647000                       # number of demand (read+write) MSHR miss ticks (Tick)
system.cpu.dcache.demandMshrMissLatency::total 829574647000                       # number of demand (read+write) MSHR miss ticks (Tick)
system.cpu.dcache.overallMshrMissLatency::cpu.data 829574647000                       # number of overall MSHR miss ticks (Tick)
system.cpu.dcache.overallMshrMissLatency::total 829574647000                       # number of overall MSHR miss ticks (Tick)
system.cpu.dcache.demandMshrMissRate::cpu.data     0.048015                       # mshr miss ratio for demand accesses (Ratio)
system.cpu.dcache.demandMshrMissRate::total     0.048015                       # mshr miss ratio for demand accesses (Ratio)
system.cpu.dcache.overallMshrMissRate::cpu.data     0.048015                       # mshr miss ratio for overall accesses (Ratio)
system.cpu.dcache.overallMshrMissRate::total     0.048015                       # mshr miss ratio for overall accesses (Ratio)
system.cpu.dcache.demandAvgMshrMissLatency::cpu.data 58811.018882                       # average overall mshr miss latency ((Tick/Count))
system.cpu.dcache.demandAvgMshrMissLatency::total 58811.018882                       # average overall mshr miss latency ((Tick/Count))
system.cpu.dcache.overallAvgMshrMissLatency::cpu.data 58811.018882                       # average overall mshr miss latency ((Tick/Count))
system.cpu.dcache.overallAvgMshrMissLatency::total 58811.018882                       # average overall mshr miss latency ((Tick/Count))
system.cpu.dcache.replacements               14105257                       # number of replacements (Count)
system.cpu.dcache.LockedRMWReadReq.hits::cpu.data           12                       # number of LockedRMWReadReq hits (Count)
system.cpu.dcache.LockedRMWReadReq.hits::total           12                       # number of LockedRMWReadReq hits (Count)
system.cpu.dcache.LockedRMWReadReq.accesses::cpu.data           12                       # number of LockedRMWReadReq accesses(hits+misses) (Count)
system.cpu.dcache.LockedRMWReadReq.accesses::total           12                       # number of LockedRMWReadReq accesses(hits+misses) (Count)
system.cpu.dcache.LockedRMWReadReq.mshrMissLatency::cpu.data        24000                       # number of LockedRMWReadReq MSHR miss ticks (Tick)
system.cpu.dcache.LockedRMWReadReq.mshrMissLatency::total        24000                       # number of LockedRMWReadReq MSHR miss ticks (Tick)
system.cpu.dcache.LockedRMWReadReq.avgMshrMissLatency::cpu.data          inf                       # average LockedRMWReadReq mshr miss latency ((Tick/Count))
system.cpu.dcache.LockedRMWReadReq.avgMshrMissLatency::total          inf                       # average LockedRMWReadReq mshr miss latency ((Tick/Count))
system.cpu.dcache.LockedRMWWriteReq.hits::cpu.data           12                       # number of LockedRMWWriteReq hits (Count)
system.cpu.dcache.LockedRMWWriteReq.hits::total           12                       # number of LockedRMWWriteReq hits (Count)
system.cpu.dcache.LockedRMWWriteReq.accesses::cpu.data           12                       # number of LockedRMWWriteReq accesses(hits+misses) (Count)
system.cpu.dcache.LockedRMWWriteReq.accesses::total           12                       # number of LockedRMWWriteReq accesses(hits+misses) (Count)
system.cpu.dcache.ReadReq.hits::cpu.data    207708142                       # number of ReadReq hits (Count)
system.cpu.dcache.ReadReq.hits::total       207708142                       # number of ReadReq hits (Count)
system.cpu.dcache.ReadReq.misses::cpu.data     13591095                       # number of ReadReq misses (Count)
system.cpu.dcache.ReadReq.misses::total      13591095                       # number of ReadReq misses (Count)
system.cpu.dcache.ReadReq.missLatency::cpu.data 828791789000                       # number of ReadReq miss ticks (Tick)
system.cpu.dcache.ReadReq.missLatency::total 828791789000                       # number of ReadReq miss ticks (Tick)
system.cpu.dcache.ReadReq.accesses::cpu.data    221299237                       # number of ReadReq accesses(hits+misses) (Count)
system.cpu.dcache.ReadReq.accesses::total    221299237                       # number of ReadReq accesses(hits+misses) (Count)
system.cpu.dcache.ReadReq.missRate::cpu.data     0.061415                       # miss rate for ReadReq accesses (Ratio)
system.cpu.dcache.ReadReq.missRate::total     0.061415                       # miss rate for ReadReq accesses (Ratio)
system.cpu.dcache.ReadReq.avgMissLatency::cpu.data 60980.501497                       # average ReadReq miss latency ((Tick/Count))
system.cpu.dcache.ReadReq.avgMissLatency::total 60980.501497                       # average ReadReq miss latency ((Tick/Count))
system.cpu.dcache.ReadReq.mshrMisses::cpu.data     13591095                       # number of ReadReq MSHR misses (Count)
system.cpu.dcache.ReadReq.mshrMisses::total     13591095                       # number of ReadReq MSHR misses (Count)
system.cpu.dcache.ReadReq.mshrMissLatency::cpu.data 801609599000                       # number of ReadReq MSHR miss ticks (Tick)
system.cpu.dcache.ReadReq.mshrMissLatency::total 801609599000                       # number of ReadReq MSHR miss ticks (Tick)
system.cpu.dcache.ReadReq.mshrMissRate::cpu.data     0.061415                       # mshr miss rate for ReadReq accesses (Ratio)
system.cpu.dcache.ReadReq.mshrMissRate::total     0.061415                       # mshr miss rate for ReadReq accesses (Ratio)
system.cpu.dcache.ReadReq.avgMshrMissLatency::cpu.data 58980.501497                       # average ReadReq mshr miss latency ((Tick/Count))
system.cpu.dcache.ReadReq.avgMshrMissLatency::total 58980.501497                       # average ReadReq mshr miss latency ((Tick/Count))
system.cpu.dcache.WriteReq.hits::cpu.data     71963899                       # number of WriteReq hits (Count)
system.cpu.dcache.WriteReq.hits::total       71963899                       # number of WriteReq hits (Count)
system.cpu.dcache.WriteReq.misses::cpu.data       514674                       # number of WriteReq misses (Count)
system.cpu.dcache.WriteReq.misses::total       514674                       # number of WriteReq misses (Count)
system.cpu.dcache.WriteReq.missLatency::cpu.data  28994396000                       # number of WriteReq miss ticks (Tick)
system.cpu.dcache.WriteReq.missLatency::total  28994396000                       # number of WriteReq miss ticks (Tick)
system.cpu.dcache.WriteReq.accesses::cpu.data     72478573                       # number of WriteReq accesses(hits+misses) (Count)
system.cpu.dcache.WriteReq.accesses::total     72478573                       # number of WriteReq accesses(hits+misses) (Count)
system.cpu.dcache.WriteReq.missRate::cpu.data     0.007101                       # miss rate for WriteReq accesses (Ratio)
system.cpu.dcache.WriteReq.missRate::total     0.007101                       # miss rate for WriteReq accesses (Ratio)
system.cpu.dcache.WriteReq.avgMissLatency::cpu.data 56335.458951                       # average WriteReq miss latency ((Tick/Count))
system.cpu.dcache.WriteReq.avgMissLatency::total 56335.458951                       # average WriteReq miss latency ((Tick/Count))
system.cpu.dcache.WriteReq.mshrMisses::cpu.data       514674                       # number of WriteReq MSHR misses (Count)
system.cpu.dcache.WriteReq.mshrMisses::total       514674                       # number of WriteReq MSHR misses (Count)
system.cpu.dcache.WriteReq.mshrMissLatency::cpu.data  27965048000                       # number of WriteReq MSHR miss ticks (Tick)
system.cpu.dcache.WriteReq.mshrMissLatency::total  27965048000                       # number of WriteReq MSHR miss ticks (Tick)
system.cpu.dcache.WriteReq.mshrMissRate::cpu.data     0.007101                       # mshr miss rate for WriteReq accesses (Ratio)
system.cpu.dcache.WriteReq.mshrMissRate::total     0.007101                       # mshr miss rate for WriteReq accesses (Ratio)
system.cpu.dcache.WriteReq.avgMshrMissLatency::cpu.data 54335.458951                       # average WriteReq mshr miss latency ((Tick/Count))
system.cpu.dcache.WriteReq.avgMshrMissLatency::total 54335.458951                       # average WriteReq mshr miss latency ((Tick/Count))
system.cpu.dcache.power_state.pwrStateResidencyTicks::UNDEFINED 2771849434000                       # Cumulative time (in ticks) in various power states (Tick)
system.cpu.dcache.tags.tagsInUse           511.964456                       # Average ticks per tags in use ((Tick/Count))
system.cpu.dcache.tags.totalRefs            293777834                       # Total number of references to valid blocks. (Count)
system.cpu.dcache.tags.sampledRefs           14105769                       # Sample count of references to valid blocks. (Count)
system.cpu.dcache.tags.avgRefs              20.826786                       # Average number of references to valid blocks. ((Count/Count))
system.cpu.dcache.tags.warmupTick              220000                       # The tick when the warmup percentage was hit. (Tick)
system.cpu.dcache.tags.occupancies::cpu.data   511.964456                       # Average occupied blocks per tick, per requestor ((Count/Tick))
system.cpu.dcache.tags.avgOccs::cpu.data     0.999931                       # Average percentage of cache occupancy ((Ratio/Tick))
system.cpu.dcache.tags.avgOccs::total        0.999931                       # Average percentage of cache occupancy ((Ratio/Tick))
system.cpu.dcache.tags.occupanciesTaskId::1024          512                       # Occupied blocks per task id (Count)
system.cpu.dcache.tags.ageTaskId_1024::0            3                       # Occupied blocks per task id, per block age (Count)
system.cpu.dcache.tags.ageTaskId_1024::1          268                       # Occupied blocks per task id, per block age (Count)
system.cpu.dcache.tags.ageTaskId_1024::2          230                       # Occupied blocks per task id, per block age (Count)
system.cpu.dcache.tags.ageTaskId_1024::3           11                       # Occupied blocks per task id, per block age (Count)
system.cpu.dcache.tags.ratioOccsTaskId::1024            1                       # Ratio of occupied blocks and all blocks, per task id (Ratio)
system.cpu.dcache.tags.tagAccesses         1189217105                       # Number of tag accesses (Count)
system.cpu.dcache.tags.dataAccesses        1189217105                       # Number of data accesses (Count)
system.cpu.dcache.tags.power_state.pwrStateResidencyTicks::UNDEFINED 2771849434000                       # Cumulative time (in ticks) in various power states (Tick)
system.cpu.exec_context.thread_0.numInsts    500000000                       # Number of instructions committed (Count)
system.cpu.exec_context.thread_0.numOps     876313911                       # Number of ops (including micro ops) committed (Count)
system.cpu.exec_context.thread_0.numIntAluAccesses    872968905                       # Number of integer alu accesses (Count)
system.cpu.exec_context.thread_0.numFpAluAccesses      2882231                       # Number of float alu accesses (Count)
system.cpu.exec_context.thread_0.numVecAluAccesses            0                       # Number of vector alu accesses (Count)
system.cpu.exec_context.thread_0.numCallsReturns     11025257                       # Number of times a function call or return occured (Count)
system.cpu.exec_context.thread_0.numCondCtrlInsts     75981030                       # Number of instructions that are conditional controls (Count)
system.cpu.exec_context.thread_0.numIntInsts    872968905                       # Number of integer instructions (Count)
system.cpu.exec_context.thread_0.numFpInsts      2882231                       # Number of float instructions (Count)
system.cpu.exec_context.thread_0.numVecInsts            0                       # Number of vector instructions (Count)
system.cpu.exec_context.thread_0.numIntRegReads   1037098004                       # Number of times the integer registers were read (Count)
system.cpu.exec_context.thread_0.numIntRegWrites    625733210                       # Number of times the integer registers were written (Count)
system.cpu.exec_context.thread_0.numFpRegReads      4748081                       # Number of times the floating registers were read (Count)
system.cpu.exec_context.thread_0.numFpRegWrites      2464405                       # Number of times the floating registers were written (Count)
system.cpu.exec_context.thread_0.numVecRegReads            0                       # Number of times the vector registers were read (Count)
system.cpu.exec_context.thread_0.numVecRegWrites            0                       # Number of times the vector registers were written (Count)
system.cpu.exec_context.thread_0.numVecPredRegReads            0                       # Number of times the predicate registers were read (Count)
system.cpu.exec_context.thread_0.numVecPredRegWrites            0                       # Number of times the predicate registers were written (Count)
system.cpu.exec_context.thread_0.numCCRegReads    441654778                       # Number of times the CC registers were read (Count)
system.cpu.exec_context.thread_0.numCCRegWrites    253505604                       # Number of times the CC registers were written (Count)
system.cpu.exec_context.thread_0.numMiscRegReads    492285888                       # Number of times the Misc registers were read (Count)
system.cpu.exec_context.thread_0.numMiscRegWrites            0                       # Number of times the Misc registers were written (Count)
system.cpu.exec_context.thread_0.numMemRefs    293765803                       # Number of memory refs (Count)
system.cpu.exec_context.thread_0.numLoadInsts    221285122                       # Number of load instructions (Count)
system.cpu.exec_context.thread_0.numStoreInsts     72480681                       # Number of store instructions (Count)
system.cpu.exec_context.thread_0.numIdleCycles            0                       # Number of idle cycles (Cycle)
system.cpu.exec_context.thread_0.numBusyCycles   2771849434                       # Number of busy cycles (Cycle)
system.cpu.exec_context.thread_0.notIdleFraction            1                       # Percentage of non-idle cycles (Ratio)
system.cpu.exec_context.thread_0.idleFraction            0                       # Percentage of idle cycles (Ratio)
system.cpu.exec_context.thread_0.numBranches     97901032                       # Number of branches fetched (Count)
system.cpu.exec_context.thread_0.numPredictedBranches     52830198                       # Number of branches predicted as taken (Count)
system.cpu.exec_context.thread_0.numBranchMispred     12565295                       # Number of branch mispredictions (Count)
system.cpu.exec_context.thread_0.statExecutedInstType::No_OpClass       758542      0.09%      0.09% # Class of executed instruction. (Count)
system.cpu.exec_context.thread_0.statExecutedInstType::IntAlu    578601330     66.03%     66.11% # Class of executed instruction. (Count)
system.cpu.exec_context.thread_0.statExecutedInstType::IntMult       907073      0.10%     66.22% # Class of executed instruction. (Count)
system.cpu.exec_context.thread_0.statExecutedInstType::IntDiv           42      0.00%     66.22% # Class of executed instruction. (Count)
system.cpu.exec_context.thread_0.statExecutedInstType::FloatAdd       181009      0.02%     66.24% # Class of executed instruction. (Count)
system.cpu.exec_context.thread_0.statExecutedInstType::FloatCmp            0      0.00%     66.24% # Class of executed instruction. (Count)
system.cpu.exec_context.thread_0.statExecutedInstType::FloatCvt            0      0.00%     66.24% # Class of executed instruction. (Count)
system.cpu.exec_context.thread_0.statExecutedInstType::FloatMult            0      0.00%     66.24% # Class of executed instruction. (Count)
system.cpu.exec_context.thread_0.statExecutedInstType::FloatMultAcc            0      0.00%     66.24% # Class of executed instruction. (Count)
system.cpu.exec_context.thread_0.statExecutedInstType::FloatDiv            0      0.00%     66.24% # Class of executed instruction. (Count)
system.cpu.exec_context.thread_0.statExecutedInstType::FloatMisc            0      0.00%     66.24% # Class of executed instruction. (Count)
system.cpu.exec_context.thread_0.statExecutedInstType::FloatSqrt            0      0.00%     66.24% # Class of executed instruction. (Count)
system.cpu.exec_context.thread_0.statExecutedInstType::SimdAdd            0      0.00%     66.24% # Class of executed instruction. (Count)
system.cpu.exec_context.thread_0.statExecutedInstType::SimdAddAcc            0      0.00%     66.24% # Class of executed instruction. (Count)
system.cpu.exec_context.thread_0.statExecutedInstType::SimdAlu          126      0.00%     66.24% # Class of executed instruction. (Count)
system.cpu.exec_context.thread_0.statExecutedInstType::SimdCmp            0      0.00%     66.24% # Class of executed instruction. (Count)
system.cpu.exec_context.thread_0.statExecutedInstType::SimdCvt       417602      0.05%     66.28% # Class of executed instruction. (Count)
system.cpu.exec_context.thread_0.statExecutedInstType::SimdMisc      1684649      0.19%     66.48% # Class of executed instruction. (Count)
system.cpu.exec_context.thread_0.statExecutedInstType::SimdMult            0      0.00%     66.48% # Class of executed instruction. (Count)
system.cpu.exec_context.thread_0.statExecutedInstType::SimdMultAcc            0      0.00%     66.48% # Class of executed instruction. (Count)
system.cpu.exec_context.thread_0.statExecutedInstType::SimdShift            0      0.00%     66.48% # Class of executed instruction. (Count)
system.cpu.exec_context.thread_0.statExecutedInstType::SimdShiftAcc            0      0.00%     66.48% # Class of executed instruction. (Count)
system.cpu.exec_context.thread_0.statExecutedInstType::SimdDiv            0      0.00%     66.48% # Class of executed instruction. (Count)
system.cpu.exec_context.thread_0.statExecutedInstType::SimdSqrt            0      0.00%     66.48% # Class of executed instruction. (Count)
system.cpu.exec_context.thread_0.statExecutedInstType::SimdFloatAdd            0      0.00%     66.48% # Class of executed instruction. (Count)
system.cpu.exec_context.thread_0.statExecutedInstType::SimdFloatAlu            0      0.00%     66.48% # Class of executed instruction. (Count)
system.cpu.exec_context.thread_0.statExecutedInstType::SimdFloatCmp            0      0.00%     66.48% # Class of executed instruction. (Count)
system.cpu.exec_context.thread_0.statExecutedInstType::SimdFloatCvt            0      0.00%     66.48% # Class of executed instruction. (Count)
system.cpu.exec_context.thread_0.statExecutedInstType::SimdFloatDiv            0      0.00%     66.48% # Class of executed instruction. (Count)
system.cpu.exec_context.thread_0.statExecutedInstType::SimdFloatMisc            0      0.00%     66.48% # Class of executed instruction. (Count)
system.cpu.exec_context.thread_0.statExecutedInstType::SimdFloatMult            0      0.00%     66.48% # Class of executed instruction. (Count)
system.cpu.exec_context.thread_0.statExecutedInstType::SimdFloatMultAcc            0      0.00%     66.48% # Class of executed instruction. (Count)
system.cpu.exec_context.thread_0.statExecutedInstType::SimdFloatSqrt            0      0.00%     66.48% # Class of executed instruction. (Count)
system.cpu.exec_context.thread_0.statExecutedInstType::SimdReduceAdd            0      0.00%     66.48% # Class of executed instruction. (Count)
system.cpu.exec_context.thread_0.statExecutedInstType::SimdReduceAlu            0      0.00%     66.48% # Class of executed instruction. (Count)
system.cpu.exec_context.thread_0.statExecutedInstType::SimdReduceCmp            0      0.00%     66.48% # Class of executed instruction. (Count)
system.cpu.exec_context.thread_0.statExecutedInstType::SimdFloatReduceAdd            0      0.00%     66.48% # Class of executed instruction. (Count)
system.cpu.exec_context.thread_0.statExecutedInstType::SimdFloatReduceCmp            0      0.00%     66.48% # Class of executed instruction. (Count)
system.cpu.exec_context.thread_0.statExecutedInstType::SimdAes            0      0.00%     66.48% # Class of executed instruction. (Count)
system.cpu.exec_context.thread_0.statExecutedInstType::SimdAesMix            0      0.00%     66.48% # Class of executed instruction. (Count)
system.cpu.exec_context.thread_0.statExecutedInstType::SimdSha1Hash            0      0.00%     66.48% # Class of executed instruction. (Count)
system.cpu.exec_context.thread_0.statExecutedInstType::SimdSha1Hash2            0      0.00%     66.48% # Class of executed instruction. (Count)
system.cpu.exec_context.thread_0.statExecutedInstType::SimdSha256Hash            0      0.00%     66.48% # Class of executed instruction. (Count)
system.cpu.exec_context.thread_0.statExecutedInstType::SimdSha256Hash2            0      0.00%     66.48% # Class of executed instruction. (Count)
system.cpu.exec_context.thread_0.statExecutedInstType::SimdShaSigma2            0      0.00%     66.48% # Class of executed instruction. (Count)
system.cpu.exec_context.thread_0.statExecutedInstType::SimdShaSigma3            0      0.00%     66.48% # Class of executed instruction. (Count)
system.cpu.exec_context.thread_0.statExecutedInstType::SimdPredAlu            0      0.00%     66.48% # Class of executed instruction. (Count)
system.cpu.exec_context.thread_0.statExecutedInstType::MemRead    220867548     25.20%     91.68% # Class of executed instruction. (Count)
system.cpu.exec_context.thread_0.statExecutedInstType::MemWrite     72480441      8.27%     99.95% # Class of executed instruction. (Count)
system.cpu.exec_context.thread_0.statExecutedInstType::FloatMemRead       417574      0.05%    100.00% # Class of executed instruction. (Count)
system.cpu.exec_context.thread_0.statExecutedInstType::FloatMemWrite          240      0.00%    100.00% # Class of executed instruction. (Count)
system.cpu.exec_context.thread_0.statExecutedInstType::IprAccess            0      0.00%    100.00% # Class of executed instruction. (Count)
system.cpu.exec_context.thread_0.statExecutedInstType::InstPrefetch            0      0.00%    100.00% # Class of executed instruction. (Count)
system.cpu.exec_context.thread_0.statExecutedInstType::total    876316176                       # Class of executed instruction. (Count)
system.cpu.icache.demandHits::cpu.inst      677319111                       # number of demand (read+write) hits (Count)
system.cpu.icache.demandHits::total         677319111                       # number of demand (read+write) hits (Count)
system.cpu.icache.overallHits::cpu.inst     677319111                       # number of overall hits (Count)
system.cpu.icache.overallHits::total        677319111                       # number of overall hits (Count)
system.cpu.icache.demandMisses::cpu.inst         1529                       # number of demand (read+write) misses (Count)
system.cpu.icache.demandMisses::total            1529                       # number of demand (read+write) misses (Count)
system.cpu.icache.overallMisses::cpu.inst         1529                       # number of overall misses (Count)
system.cpu.icache.overallMisses::total           1529                       # number of overall misses (Count)
system.cpu.icache.demandMissLatency::cpu.inst     95031000                       # number of demand (read+write) miss ticks (Tick)
system.cpu.icache.demandMissLatency::total     95031000                       # number of demand (read+write) miss ticks (Tick)
system.cpu.icache.overallMissLatency::cpu.inst     95031000                       # number of overall miss ticks (Tick)
system.cpu.icache.overallMissLatency::total     95031000                       # number of overall miss ticks (Tick)
system.cpu.icache.demandAccesses::cpu.inst    677320640                       # number of demand (read+write) accesses (Count)
system.cpu.icache.demandAccesses::total     677320640                       # number of demand (read+write) accesses (Count)
system.cpu.icache.overallAccesses::cpu.inst    677320640                       # number of overall (read+write) accesses (Count)
system.cpu.icache.overallAccesses::total    677320640                       # number of overall (read+write) accesses (Count)
system.cpu.icache.demandMissRate::cpu.inst     0.000002                       # miss rate for demand accesses (Ratio)
system.cpu.icache.demandMissRate::total      0.000002                       # miss rate for demand accesses (Ratio)
system.cpu.icache.overallMissRate::cpu.inst     0.000002                       # miss rate for overall accesses (Ratio)
system.cpu.icache.overallMissRate::total     0.000002                       # miss rate for overall accesses (Ratio)
system.cpu.icache.demandAvgMissLatency::cpu.inst 62152.387181                       # average overall miss latency in ticks ((Tick/Count))
system.cpu.icache.demandAvgMissLatency::total 62152.387181                       # average overall miss latency in ticks ((Tick/Count))
system.cpu.icache.overallAvgMissLatency::cpu.inst 62152.387181                       # average overall miss latency ((Tick/Count))
system.cpu.icache.overallAvgMissLatency::total 62152.387181                       # average overall miss latency ((Tick/Count))
system.cpu.icache.blockedCycles::no_mshrs            0                       # number of cycles access was blocked (Cycle)
system.cpu.icache.blockedCycles::no_targets            0                       # number of cycles access was blocked (Cycle)
system.cpu.icache.blockedCauses::no_mshrs            0                       # number of times access was blocked (Count)
system.cpu.icache.blockedCauses::no_targets            0                       # number of times access was blocked (Count)
system.cpu.icache.avgBlocked::no_mshrs            nan                       # average number of cycles each access was blocked ((Cycle/Count))
system.cpu.icache.avgBlocked::no_targets          nan                       # average number of cycles each access was blocked ((Cycle/Count))
system.cpu.icache.demandMshrMisses::cpu.inst         1529                       # number of demand (read+write) MSHR misses (Count)
system.cpu.icache.demandMshrMisses::total         1529                       # number of demand (read+write) MSHR misses (Count)
system.cpu.icache.overallMshrMisses::cpu.inst         1529                       # number of overall MSHR misses (Count)
system.cpu.icache.overallMshrMisses::total         1529                       # number of overall MSHR misses (Count)
system.cpu.icache.demandMshrMissLatency::cpu.inst     91973000                       # number of demand (read+write) MSHR miss ticks (Tick)
system.cpu.icache.demandMshrMissLatency::total     91973000                       # number of demand (read+write) MSHR miss ticks (Tick)
system.cpu.icache.overallMshrMissLatency::cpu.inst     91973000                       # number of overall MSHR miss ticks (Tick)
system.cpu.icache.overallMshrMissLatency::total     91973000                       # number of overall MSHR miss ticks (Tick)
system.cpu.icache.demandMshrMissRate::cpu.inst     0.000002                       # mshr miss ratio for demand accesses (Ratio)
system.cpu.icache.demandMshrMissRate::total     0.000002                       # mshr miss ratio for demand accesses (Ratio)
system.cpu.icache.overallMshrMissRate::cpu.inst     0.000002                       # mshr miss ratio for overall accesses (Ratio)
system.cpu.icache.overallMshrMissRate::total     0.000002                       # mshr miss ratio for overall accesses (Ratio)
system.cpu.icache.demandAvgMshrMissLatency::cpu.inst 60152.387181                       # average overall mshr miss latency ((Tick/Count))
system.cpu.icache.demandAvgMshrMissLatency::total 60152.387181                       # average overall mshr miss latency ((Tick/Count))
system.cpu.icache.overallAvgMshrMissLatency::cpu.inst 60152.387181                       # average overall mshr miss latency ((Tick/Count))
system.cpu.icache.overallAvgMshrMissLatency::total 60152.387181                       # average overall mshr miss latency ((Tick/Count))
system.cpu.icache.replacements                   1086                       # number of replacements (Count)
system.cpu.icache.ReadReq.hits::cpu.inst    677319111                       # number of ReadReq hits (Count)
system.cpu.icache.ReadReq.hits::total       677319111                       # number of ReadReq hits (Count)
system.cpu.icache.ReadReq.misses::cpu.inst         1529                       # number of ReadReq misses (Count)
system.cpu.icache.ReadReq.misses::total          1529                       # number of ReadReq misses (Count)
system.cpu.icache.ReadReq.missLatency::cpu.inst     95031000                       # number of ReadReq miss ticks (Tick)
system.cpu.icache.ReadReq.missLatency::total     95031000                       # number of ReadReq miss ticks (Tick)
system.cpu.icache.ReadReq.accesses::cpu.inst    677320640                       # number of ReadReq accesses(hits+misses) (Count)
system.cpu.icache.ReadReq.accesses::total    677320640                       # number of ReadReq accesses(hits+misses) (Count)
system.cpu.icache.ReadReq.missRate::cpu.inst     0.000002                       # miss rate for ReadReq accesses (Ratio)
system.cpu.icache.ReadReq.missRate::total     0.000002                       # miss rate for ReadReq accesses (Ratio)
system.cpu.icache.ReadReq.avgMissLatency::cpu.inst 62152.387181                       # average ReadReq miss latency ((Tick/Count))
system.cpu.icache.ReadReq.avgMissLatency::total 62152.387181                       # average ReadReq miss latency ((Tick/Count))
system.cpu.icache.ReadReq.mshrMisses::cpu.inst         1529                       # number of ReadReq MSHR misses (Count)
system.cpu.icache.ReadReq.mshrMisses::total         1529                       # number of ReadReq MSHR misses (Count)
system.cpu.icache.ReadReq.mshrMissLatency::cpu.inst     91973000                       # number of ReadReq MSHR miss ticks (Tick)
system.cpu.icache.ReadReq.mshrMissLatency::total     91973000                       # number of ReadReq MSHR miss ticks (Tick)
system.cpu.icache.ReadReq.mshrMissRate::cpu.inst     0.000002                       # mshr miss rate for ReadReq accesses (Ratio)
system.cpu.icache.ReadReq.mshrMissRate::total     0.000002                       # mshr miss rate for ReadReq accesses (Ratio)
system.cpu.icache.ReadReq.avgMshrMissLatency::cpu.inst 60152.387181                       # average ReadReq mshr miss latency ((Tick/Count))
system.cpu.icache.ReadReq.avgMshrMissLatency::total 60152.387181                       # average ReadReq mshr miss latency ((Tick/Count))
system.cpu.icache.power_state.pwrStateResidencyTicks::UNDEFINED 2771849434000                       # Cumulative time (in ticks) in various power states (Tick)
system.cpu.icache.tags.tagsInUse           430.609325                       # Average ticks per tags in use ((Tick/Count))
system.cpu.icache.tags.totalRefs            677320640                       # Total number of references to valid blocks. (Count)
system.cpu.icache.tags.sampledRefs               1529                       # Sample count of references to valid blocks. (Count)
system.cpu.icache.tags.avgRefs           442982.759974                       # Average number of references to valid blocks. ((Count/Count))
system.cpu.icache.tags.warmupTick              107000                       # The tick when the warmup percentage was hit. (Tick)
system.cpu.icache.tags.occupancies::cpu.inst   430.609325                       # Average occupied blocks per tick, per requestor ((Count/Tick))
system.cpu.icache.tags.avgOccs::cpu.inst     0.841034                       # Average percentage of cache occupancy ((Ratio/Tick))
system.cpu.icache.tags.avgOccs::total        0.841034                       # Average percentage of cache occupancy ((Ratio/Tick))
system.cpu.icache.tags.occupanciesTaskId::1024          443                       # Occupied blocks per task id (Count)
system.cpu.icache.tags.ageTaskId_1024::4          443                       # Occupied blocks per task id, per block age (Count)
system.cpu.icache.tags.ratioOccsTaskId::1024     0.865234                       # Ratio of occupied blocks and all blocks, per task id (Ratio)
system.cpu.icache.tags.tagAccesses         1354642809                       # Number of tag accesses (Count)
system.cpu.icache.tags.dataAccesses        1354642809                       # Number of data accesses (Count)
system.cpu.icache.tags.power_state.pwrStateResidencyTicks::UNDEFINED 2771849434000                       # Cumulative time (in ticks) in various power states (Tick)
system.cpu.interrupts.clk_domain.clock          16000                       # Clock period in ticks (Tick)
system.cpu.mmu.dtb.rdAccesses               221299250                       # TLB accesses on read requests (Count)
system.cpu.mmu.dtb.wrAccesses                72480681                       # TLB accesses on write requests (Count)
system.cpu.mmu.dtb.rdMisses                  10576634                       # TLB misses on read requests (Count)
system.cpu.mmu.dtb.wrMisses                     42294                       # TLB misses on write requests (Count)
system.cpu.mmu.dtb.walker.power_state.pwrStateResidencyTicks::UNDEFINED 2771849434000                       # Cumulative time (in ticks) in various power states (Tick)
system.cpu.mmu.itb.rdAccesses                       0                       # TLB accesses on read requests (Count)
system.cpu.mmu.itb.wrAccesses               677320640                       # TLB accesses on write requests (Count)
system.cpu.mmu.itb.rdMisses                         0                       # TLB misses on read requests (Count)
system.cpu.mmu.itb.wrMisses                        71                       # TLB misses on write requests (Count)
system.cpu.mmu.itb.walker.power_state.pwrStateResidencyTicks::UNDEFINED 2771849434000                       # Cumulative time (in ticks) in various power states (Tick)
system.cpu.power_state.pwrStateResidencyTicks::ON 2771849434000                       # Cumulative time (in ticks) in various power states (Tick)
system.cpu.thread_0.numInsts                        0                       # Number of Instructions committed (Count)
system.cpu.thread_0.numOps                          0                       # Number of Ops committed (Count)
system.cpu.thread_0.numMemRefs                      0                       # Number of Memory References (Count)
system.cpu.workload.numSyscalls                   168                       # Number of system calls (Count)
system.l2bus.transDist::ReadResp             13592624                       # Transaction distribution (Count)
system.l2bus.transDist::WritebackDirty        7633101                       # Transaction distribution (Count)
system.l2bus.transDist::CleanEvict           11830566                       # Transaction distribution (Count)
system.l2bus.transDist::ReadExReq              514674                       # Transaction distribution (Count)
system.l2bus.transDist::ReadExResp             514674                       # Transaction distribution (Count)
system.l2bus.transDist::ReadSharedReq        13592624                       # Transaction distribution (Count)
system.l2bus.pktCount_system.cpu.icache.mem_side_port::system.l2cache.cpu_side_port         4144                       # Packet count per connected requestor and responder (Count)
system.l2bus.pktCount_system.cpu.dcache.mem_side_port::system.l2cache.cpu_side_port     42316795                       # Packet count per connected requestor and responder (Count)
system.l2bus.pktCount::total                 42320939                       # Packet count per connected requestor and responder (Count)
system.l2bus.pktSize_system.cpu.icache.mem_side_port::system.l2cache.cpu_side_port        97856                       # Cumulative packet size per connected requestor and responder (Byte)
system.l2bus.pktSize_system.cpu.dcache.mem_side_port::system.l2cache.cpu_side_port   1334294976                       # Cumulative packet size per connected requestor and responder (Byte)
system.l2bus.pktSize::total                1334392832                       # Cumulative packet size per connected requestor and responder (Byte)
system.l2bus.snoops                           5357324                       # Total snoops (Count)
system.l2bus.snoopTraffic                    56992704                       # Total snoop traffic (Byte)
system.l2bus.snoopFanout::samples            19464622                       # Request fanout histogram (Count)
system.l2bus.snoopFanout::mean               0.000041                       # Request fanout histogram (Count)
system.l2bus.snoopFanout::stdev              0.006383                       # Request fanout histogram (Count)
system.l2bus.snoopFanout::underflows                0      0.00%      0.00% # Request fanout histogram (Count)
system.l2bus.snoopFanout::0                  19463829    100.00%    100.00% # Request fanout histogram (Count)
system.l2bus.snoopFanout::1                       793      0.00%    100.00% # Request fanout histogram (Count)
system.l2bus.snoopFanout::2                         0      0.00%    100.00% # Request fanout histogram (Count)
system.l2bus.snoopFanout::overflows                 0      0.00%    100.00% # Request fanout histogram (Count)
system.l2bus.snoopFanout::min_value                 0                       # Request fanout histogram (Count)
system.l2bus.snoopFanout::max_value                 1                       # Request fanout histogram (Count)
system.l2bus.snoopFanout::total              19464622                       # Request fanout histogram (Count)
system.l2bus.power_state.pwrStateResidencyTicks::UNDEFINED 2771849434000                       # Cumulative time (in ticks) in various power states (Tick)
system.l2bus.reqLayer0.occupancy          41698821000                       # Layer occupancy (ticks) (Tick)
system.l2bus.reqLayer0.utilization                0.0                       # Layer utilization (Ratio)
system.l2bus.respLayer0.occupancy             4587000                       # Layer occupancy (ticks) (Tick)
system.l2bus.respLayer0.utilization               0.0                       # Layer utilization (Ratio)
system.l2bus.respLayer1.occupancy         42317307000                       # Layer occupancy (ticks) (Tick)
system.l2bus.respLayer1.utilization               0.0                       # Layer utilization (Ratio)
system.l2bus.snoop_filter.totRequests        28213641                       # Total number of requests made to the snoop filter. (Count)
system.l2bus.snoop_filter.hitSingleRequests     14106343                       # Number of requests hitting in the snoop filter with a single holder of the requested data. (Count)
system.l2bus.snoop_filter.hitMultiRequests            1                       # Number of requests hitting in the snoop filter with multiple (>1) holders of the requested data. (Count)
system.l2bus.snoop_filter.totSnoops               792                       # Total number of snoops made to the snoop filter. (Count)
system.l2bus.snoop_filter.hitSingleSnoops          792                       # Number of snoops hitting in the snoop filter with a single holder of the requested data. (Count)
system.l2bus.snoop_filter.hitMultiSnoops            0                       # Number of snoops hitting in the snoop filter with multiple (>1) holders of the requested data. (Count)
system.l2cache.demandHits::cpu.inst               830                       # number of demand (read+write) hits (Count)
system.l2cache.demandHits::cpu.data           8716563                       # number of demand (read+write) hits (Count)
system.l2cache.demandHits::total              8717393                       # number of demand (read+write) hits (Count)
system.l2cache.overallHits::cpu.inst              830                       # number of overall hits (Count)
system.l2cache.overallHits::cpu.data          8716563                       # number of overall hits (Count)
system.l2cache.overallHits::total             8717393                       # number of overall hits (Count)
system.l2cache.demandMisses::cpu.inst             699                       # number of demand (read+write) misses (Count)
system.l2cache.demandMisses::cpu.data         5389206                       # number of demand (read+write) misses (Count)
system.l2cache.demandMisses::total            5389905                       # number of demand (read+write) misses (Count)
system.l2cache.overallMisses::cpu.inst            699                       # number of overall misses (Count)
system.l2cache.overallMisses::cpu.data        5389206                       # number of overall misses (Count)
system.l2cache.overallMisses::total           5389905                       # number of overall misses (Count)
system.l2cache.demandMissLatency::cpu.inst     69952000                       # number of demand (read+write) miss ticks (Tick)
system.l2cache.demandMissLatency::cpu.data 604111701000                       # number of demand (read+write) miss ticks (Tick)
system.l2cache.demandMissLatency::total  604181653000                       # number of demand (read+write) miss ticks (Tick)
system.l2cache.overallMissLatency::cpu.inst     69952000                       # number of overall miss ticks (Tick)
system.l2cache.overallMissLatency::cpu.data 604111701000                       # number of overall miss ticks (Tick)
system.l2cache.overallMissLatency::total 604181653000                       # number of overall miss ticks (Tick)
system.l2cache.demandAccesses::cpu.inst          1529                       # number of demand (read+write) accesses (Count)
system.l2cache.demandAccesses::cpu.data      14105769                       # number of demand (read+write) accesses (Count)
system.l2cache.demandAccesses::total         14107298                       # number of demand (read+write) accesses (Count)
system.l2cache.overallAccesses::cpu.inst         1529                       # number of overall (read+write) accesses (Count)
system.l2cache.overallAccesses::cpu.data     14105769                       # number of overall (read+write) accesses (Count)
system.l2cache.overallAccesses::total        14107298                       # number of overall (read+write) accesses (Count)
system.l2cache.demandMissRate::cpu.inst      0.457162                       # miss rate for demand accesses (Ratio)
system.l2cache.demandMissRate::cpu.data      0.382057                       # miss rate for demand accesses (Ratio)
system.l2cache.demandMissRate::total         0.382065                       # miss rate for demand accesses (Ratio)
system.l2cache.overallMissRate::cpu.inst     0.457162                       # miss rate for overall accesses (Ratio)
system.l2cache.overallMissRate::cpu.data     0.382057                       # miss rate for overall accesses (Ratio)
system.l2cache.overallMissRate::total        0.382065                       # miss rate for overall accesses (Ratio)
system.l2cache.demandAvgMissLatency::cpu.inst 100074.391989                       # average overall miss latency in ticks ((Tick/Count))
system.l2cache.demandAvgMissLatency::cpu.data 112096.605882                       # average overall miss latency in ticks ((Tick/Count))
system.l2cache.demandAvgMissLatency::total 112095.046759                       # average overall miss latency in ticks ((Tick/Count))
system.l2cache.overallAvgMissLatency::cpu.inst 100074.391989                       # average overall miss latency ((Tick/Count))
system.l2cache.overallAvgMissLatency::cpu.data 112096.605882                       # average overall miss latency ((Tick/Count))
system.l2cache.overallAvgMissLatency::total 112095.046759                       # average overall miss latency ((Tick/Count))
system.l2cache.blockedCycles::no_mshrs              0                       # number of cycles access was blocked (Cycle)
system.l2cache.blockedCycles::no_targets            0                       # number of cycles access was blocked (Cycle)
system.l2cache.blockedCauses::no_mshrs              0                       # number of times access was blocked (Count)
system.l2cache.blockedCauses::no_targets            0                       # number of times access was blocked (Count)
system.l2cache.avgBlocked::no_mshrs               nan                       # average number of cycles each access was blocked ((Cycle/Count))
system.l2cache.avgBlocked::no_targets             nan                       # average number of cycles each access was blocked ((Cycle/Count))
system.l2cache.writebacks::writebacks          890511                       # number of writebacks (Count)
system.l2cache.writebacks::total               890511                       # number of writebacks (Count)
system.l2cache.demandMshrMisses::cpu.inst          699                       # number of demand (read+write) MSHR misses (Count)
system.l2cache.demandMshrMisses::cpu.data      5389206                       # number of demand (read+write) MSHR misses (Count)
system.l2cache.demandMshrMisses::total        5389905                       # number of demand (read+write) MSHR misses (Count)
system.l2cache.overallMshrMisses::cpu.inst          699                       # number of overall MSHR misses (Count)
system.l2cache.overallMshrMisses::cpu.data      5389206                       # number of overall MSHR misses (Count)
system.l2cache.overallMshrMisses::total       5389905                       # number of overall MSHR misses (Count)
system.l2cache.demandMshrMissLatency::cpu.inst     55972000                       # number of demand (read+write) MSHR miss ticks (Tick)
system.l2cache.demandMshrMissLatency::cpu.data 496327581000                       # number of demand (read+write) MSHR miss ticks (Tick)
system.l2cache.demandMshrMissLatency::total 496383553000                       # number of demand (read+write) MSHR miss ticks (Tick)
system.l2cache.overallMshrMissLatency::cpu.inst     55972000                       # number of overall MSHR miss ticks (Tick)
system.l2cache.overallMshrMissLatency::cpu.data 496327581000                       # number of overall MSHR miss ticks (Tick)
system.l2cache.overallMshrMissLatency::total 496383553000                       # number of overall MSHR miss ticks (Tick)
system.l2cache.demandMshrMissRate::cpu.inst     0.457162                       # mshr miss ratio for demand accesses (Ratio)
system.l2cache.demandMshrMissRate::cpu.data     0.382057                       # mshr miss ratio for demand accesses (Ratio)
system.l2cache.demandMshrMissRate::total     0.382065                       # mshr miss ratio for demand accesses (Ratio)
system.l2cache.overallMshrMissRate::cpu.inst     0.457162                       # mshr miss ratio for overall accesses (Ratio)
system.l2cache.overallMshrMissRate::cpu.data     0.382057                       # mshr miss ratio for overall accesses (Ratio)
system.l2cache.overallMshrMissRate::total     0.382065                       # mshr miss ratio for overall accesses (Ratio)
system.l2cache.demandAvgMshrMissLatency::cpu.inst 80074.391989                       # average overall mshr miss latency ((Tick/Count))
system.l2cache.demandAvgMshrMissLatency::cpu.data 92096.605882                       # average overall mshr miss latency ((Tick/Count))
system.l2cache.demandAvgMshrMissLatency::total 92095.046759                       # average overall mshr miss latency ((Tick/Count))
system.l2cache.overallAvgMshrMissLatency::cpu.inst 80074.391989                       # average overall mshr miss latency ((Tick/Count))
system.l2cache.overallAvgMshrMissLatency::cpu.data 92096.605882                       # average overall mshr miss latency ((Tick/Count))
system.l2cache.overallAvgMshrMissLatency::total 92095.046759                       # average overall mshr miss latency ((Tick/Count))
system.l2cache.replacements                   5357324                       # number of replacements (Count)
system.l2cache.CleanEvict.mshrMisses::writebacks          162                       # number of CleanEvict MSHR misses (Count)
system.l2cache.CleanEvict.mshrMisses::total          162                       # number of CleanEvict MSHR misses (Count)
system.l2cache.CleanEvict.mshrMissRate::writebacks          inf                       # mshr miss rate for CleanEvict accesses (Ratio)
system.l2cache.CleanEvict.mshrMissRate::total          inf                       # mshr miss rate for CleanEvict accesses (Ratio)
system.l2cache.ReadExReq.hits::cpu.data        327108                       # number of ReadExReq hits (Count)
system.l2cache.ReadExReq.hits::total           327108                       # number of ReadExReq hits (Count)
system.l2cache.ReadExReq.misses::cpu.data       187566                       # number of ReadExReq misses (Count)
system.l2cache.ReadExReq.misses::total         187566                       # number of ReadExReq misses (Count)
system.l2cache.ReadExReq.missLatency::cpu.data  19538484000                       # number of ReadExReq miss ticks (Tick)
system.l2cache.ReadExReq.missLatency::total  19538484000                       # number of ReadExReq miss ticks (Tick)
system.l2cache.ReadExReq.accesses::cpu.data       514674                       # number of ReadExReq accesses(hits+misses) (Count)
system.l2cache.ReadExReq.accesses::total       514674                       # number of ReadExReq accesses(hits+misses) (Count)
system.l2cache.ReadExReq.missRate::cpu.data     0.364437                       # miss rate for ReadExReq accesses (Ratio)
system.l2cache.ReadExReq.missRate::total     0.364437                       # miss rate for ReadExReq accesses (Ratio)
system.l2cache.ReadExReq.avgMissLatency::cpu.data 104168.580660                       # average ReadExReq miss latency ((Tick/Count))
system.l2cache.ReadExReq.avgMissLatency::total 104168.580660                       # average ReadExReq miss latency ((Tick/Count))
system.l2cache.ReadExReq.mshrMisses::cpu.data       187566                       # number of ReadExReq MSHR misses (Count)
system.l2cache.ReadExReq.mshrMisses::total       187566                       # number of ReadExReq MSHR misses (Count)
system.l2cache.ReadExReq.mshrMissLatency::cpu.data  15787164000                       # number of ReadExReq MSHR miss ticks (Tick)
system.l2cache.ReadExReq.mshrMissLatency::total  15787164000                       # number of ReadExReq MSHR miss ticks (Tick)
system.l2cache.ReadExReq.mshrMissRate::cpu.data     0.364437                       # mshr miss rate for ReadExReq accesses (Ratio)
system.l2cache.ReadExReq.mshrMissRate::total     0.364437                       # mshr miss rate for ReadExReq accesses (Ratio)
system.l2cache.ReadExReq.avgMshrMissLatency::cpu.data 84168.580660                       # average ReadExReq mshr miss latency ((Tick/Count))
system.l2cache.ReadExReq.avgMshrMissLatency::total 84168.580660                       # average ReadExReq mshr miss latency ((Tick/Count))
system.l2cache.ReadSharedReq.hits::cpu.inst          830                       # number of ReadSharedReq hits (Count)
system.l2cache.ReadSharedReq.hits::cpu.data      8389455                       # number of ReadSharedReq hits (Count)
system.l2cache.ReadSharedReq.hits::total      8390285                       # number of ReadSharedReq hits (Count)
system.l2cache.ReadSharedReq.misses::cpu.inst          699                       # number of ReadSharedReq misses (Count)
system.l2cache.ReadSharedReq.misses::cpu.data      5201640                       # number of ReadSharedReq misses (Count)
system.l2cache.ReadSharedReq.misses::total      5202339                       # number of ReadSharedReq misses (Count)
system.l2cache.ReadSharedReq.missLatency::cpu.inst     69952000                       # number of ReadSharedReq miss ticks (Tick)
system.l2cache.ReadSharedReq.missLatency::cpu.data 584573217000                       # number of ReadSharedReq miss ticks (Tick)
system.l2cache.ReadSharedReq.missLatency::total 584643169000                       # number of ReadSharedReq miss ticks (Tick)
system.l2cache.ReadSharedReq.accesses::cpu.inst         1529                       # number of ReadSharedReq accesses(hits+misses) (Count)
system.l2cache.ReadSharedReq.accesses::cpu.data     13591095                       # number of ReadSharedReq accesses(hits+misses) (Count)
system.l2cache.ReadSharedReq.accesses::total     13592624                       # number of ReadSharedReq accesses(hits+misses) (Count)
system.l2cache.ReadSharedReq.missRate::cpu.inst     0.457162                       # miss rate for ReadSharedReq accesses (Ratio)
system.l2cache.ReadSharedReq.missRate::cpu.data     0.382724                       # miss rate for ReadSharedReq accesses (Ratio)
system.l2cache.ReadSharedReq.missRate::total     0.382733                       # miss rate for ReadSharedReq accesses (Ratio)
system.l2cache.ReadSharedReq.avgMissLatency::cpu.inst 100074.391989                       # average ReadSharedReq miss latency ((Tick/Count))
system.l2cache.ReadSharedReq.avgMissLatency::cpu.data 112382.482640                       # average ReadSharedReq miss latency ((Tick/Count))
system.l2cache.ReadSharedReq.avgMissLatency::total 112380.828893                       # average ReadSharedReq miss latency ((Tick/Count))
system.l2cache.ReadSharedReq.mshrMisses::cpu.inst          699                       # number of ReadSharedReq MSHR misses (Count)
system.l2cache.ReadSharedReq.mshrMisses::cpu.data      5201640                       # number of ReadSharedReq MSHR misses (Count)
system.l2cache.ReadSharedReq.mshrMisses::total      5202339                       # number of ReadSharedReq MSHR misses (Count)
system.l2cache.ReadSharedReq.mshrMissLatency::cpu.inst     55972000                       # number of ReadSharedReq MSHR miss ticks (Tick)
system.l2cache.ReadSharedReq.mshrMissLatency::cpu.data 480540417000                       # number of ReadSharedReq MSHR miss ticks (Tick)
system.l2cache.ReadSharedReq.mshrMissLatency::total 480596389000                       # number of ReadSharedReq MSHR miss ticks (Tick)
system.l2cache.ReadSharedReq.mshrMissRate::cpu.inst     0.457162                       # mshr miss rate for ReadSharedReq accesses (Ratio)
system.l2cache.ReadSharedReq.mshrMissRate::cpu.data     0.382724                       # mshr miss rate for ReadSharedReq accesses (Ratio)
system.l2cache.ReadSharedReq.mshrMissRate::total     0.382733                       # mshr miss rate for ReadSharedReq accesses (Ratio)
system.l2cache.ReadSharedReq.avgMshrMissLatency::cpu.inst 80074.391989                       # average ReadSharedReq mshr miss latency ((Tick/Count))
system.l2cache.ReadSharedReq.avgMshrMissLatency::cpu.data 92382.482640                       # average ReadSharedReq mshr miss latency ((Tick/Count))
system.l2cache.ReadSharedReq.avgMshrMissLatency::total 92380.828893                       # average ReadSharedReq mshr miss latency ((Tick/Count))
system.l2cache.WritebackDirty.hits::writebacks      6742590                       # number of WritebackDirty hits (Count)
system.l2cache.WritebackDirty.hits::total      6742590                       # number of WritebackDirty hits (Count)
system.l2cache.WritebackDirty.accesses::writebacks      6742590                       # number of WritebackDirty accesses(hits+misses) (Count)
system.l2cache.WritebackDirty.accesses::total      6742590                       # number of WritebackDirty accesses(hits+misses) (Count)
system.l2cache.power_state.pwrStateResidencyTicks::UNDEFINED 2771849434000                       # Cumulative time (in ticks) in various power states (Tick)
system.l2cache.tags.tagsInUse            32570.587818                       # Average ticks per tags in use ((Tick/Count))
system.l2cache.tags.totalRefs                28213478                       # Total number of references to valid blocks. (Count)
system.l2cache.tags.sampledRefs               5390092                       # Sample count of references to valid blocks. (Count)
system.l2cache.tags.avgRefs                  5.234322                       # Average number of references to valid blocks. ((Count/Count))
system.l2cache.tags.warmupTick                  86000                       # The tick when the warmup percentage was hit. (Tick)
system.l2cache.tags.occupancies::writebacks     3.019344                       # Average occupied blocks per tick, per requestor ((Count/Tick))
system.l2cache.tags.occupancies::cpu.inst     8.071370                       # Average occupied blocks per tick, per requestor ((Count/Tick))
system.l2cache.tags.occupancies::cpu.data 32559.497104                       # Average occupied blocks per tick, per requestor ((Count/Tick))
system.l2cache.tags.avgOccs::writebacks      0.000092                       # Average percentage of cache occupancy ((Ratio/Tick))
system.l2cache.tags.avgOccs::cpu.inst        0.000246                       # Average percentage of cache occupancy ((Ratio/Tick))
system.l2cache.tags.avgOccs::cpu.data        0.993637                       # Average percentage of cache occupancy ((Ratio/Tick))
system.l2cache.tags.avgOccs::total           0.993975                       # Average percentage of cache occupancy ((Ratio/Tick))
system.l2cache.tags.occupanciesTaskId::1024        32768                       # Occupied blocks per task id (Count)
system.l2cache.tags.ageTaskId_1024::1             197                       # Occupied blocks per task id, per block age (Count)
system.l2cache.tags.ageTaskId_1024::2            1776                       # Occupied blocks per task id, per block age (Count)
system.l2cache.tags.ageTaskId_1024::3           14896                       # Occupied blocks per task id, per block age (Count)
system.l2cache.tags.ageTaskId_1024::4           15899                       # Occupied blocks per task id, per block age (Count)
system.l2cache.tags.ratioOccsTaskId::1024            1                       # Ratio of occupied blocks and all blocks, per task id (Ratio)
system.l2cache.tags.tagAccesses             231099212                       # Number of tag accesses (Count)
system.l2cache.tags.dataAccesses            231099212                       # Number of data accesses (Count)
system.l2cache.tags.power_state.pwrStateResidencyTicks::UNDEFINED 2771849434000                       # Cumulative time (in ticks) in various power states (Tick)
system.mem_ctrl.avgPriority_writebacks::samples    890511.00                       # Average QoS priority value for accepted requests (Count)
system.mem_ctrl.avgPriority_cpu.inst::samples       699.00                       # Average QoS priority value for accepted requests (Count)
system.mem_ctrl.avgPriority_cpu.data::samples   5384068.00                       # Average QoS priority value for accepted requests (Count)
system.mem_ctrl.priorityMinLatency       0.000000018750                       # per QoS priority minimum request to response latency (Second)
system.mem_ctrl.priorityMaxLatency       0.006809256500                       # per QoS priority maximum request to response latency (Second)
system.mem_ctrl.numReadWriteTurnArounds         50837                       # Number of turnarounds from READ to WRITE (Count)
system.mem_ctrl.numWriteReadTurnArounds         50837                       # Number of turnarounds from WRITE to READ (Count)
system.mem_ctrl.numStayReadState             12355965                       # Number of times bus staying in READ state (Count)
system.mem_ctrl.numStayWriteState              841050                       # Number of times bus staying in WRITE state (Count)
system.mem_ctrl.readReqs                      5389905                       # Number of read requests accepted (Count)
system.mem_ctrl.writeReqs                      890511                       # Number of write requests accepted (Count)
system.mem_ctrl.readBursts                    5389905                       # Number of controller read bursts, including those serviced by the write queue (Count)
system.mem_ctrl.writeBursts                    890511                       # Number of controller write bursts, including those merged in the write queue (Count)
system.mem_ctrl.servicedByWrQ                    5138                       # Number of controller read bursts serviced by the write queue (Count)
system.mem_ctrl.mergedWrBursts                      0                       # Number of controller write bursts merged with an existing one (Count)
system.mem_ctrl.neitherReadNorWriteReqs             0                       # Number of requests that are neither read nor write (Count)
system.mem_ctrl.avgRdQLen                        1.00                       # Average read queue length when enqueuing ((Count/Tick))
system.mem_ctrl.avgWrQLen                       24.33                       # Average write queue length when enqueuing ((Count/Tick))
system.mem_ctrl.numRdRetry                          0                       # Number of times read queue was full causing retry (Count)
system.mem_ctrl.numWrRetry                          0                       # Number of times write queue was full causing retry (Count)
system.mem_ctrl.readPktSize::0                      0                       # Read request sizes (log2) (Count)
system.mem_ctrl.readPktSize::1                      0                       # Read request sizes (log2) (Count)
system.mem_ctrl.readPktSize::2                      0                       # Read request sizes (log2) (Count)
system.mem_ctrl.readPktSize::3                      0                       # Read request sizes (log2) (Count)
system.mem_ctrl.readPktSize::4                      0                       # Read request sizes (log2) (Count)
system.mem_ctrl.readPktSize::5                      0                       # Read request sizes (log2) (Count)
system.mem_ctrl.readPktSize::6                5389905                       # Read request sizes (log2) (Count)
system.mem_ctrl.writePktSize::0                     0                       # Write request sizes (log2) (Count)
system.mem_ctrl.writePktSize::1                     0                       # Write request sizes (log2) (Count)
system.mem_ctrl.writePktSize::2                     0                       # Write request sizes (log2) (Count)
system.mem_ctrl.writePktSize::3                     0                       # Write request sizes (log2) (Count)
system.mem_ctrl.writePktSize::4                     0                       # Write request sizes (log2) (Count)
system.mem_ctrl.writePktSize::5                     0                       # Write request sizes (log2) (Count)
system.mem_ctrl.writePktSize::6                890511                       # Write request sizes (log2) (Count)
system.mem_ctrl.rdQLenPdf::0                  5384767                       # What read queue length does an incoming req see (Count)
system.mem_ctrl.rdQLenPdf::1                        0                       # What read queue length does an incoming req see (Count)
system.mem_ctrl.rdQLenPdf::2                        0                       # What read queue length does an incoming req see (Count)
system.mem_ctrl.rdQLenPdf::3                        0                       # What read queue length does an incoming req see (Count)
system.mem_ctrl.rdQLenPdf::4                        0                       # What read queue length does an incoming req see (Count)
system.mem_ctrl.rdQLenPdf::5                        0                       # What read queue length does an incoming req see (Count)
system.mem_ctrl.rdQLenPdf::6                        0                       # What read queue length does an incoming req see (Count)
system.mem_ctrl.rdQLenPdf::7                        0                       # What read queue length does an incoming req see (Count)
system.mem_ctrl.rdQLenPdf::8                        0                       # What read queue length does an incoming req see (Count)
system.mem_ctrl.rdQLenPdf::9                        0                       # What read queue length does an incoming req see (Count)
system.mem_ctrl.rdQLenPdf::10                       0                       # What read queue length does an incoming req see (Count)
system.mem_ctrl.rdQLenPdf::11                       0                       # What read queue length does an incoming req see (Count)
system.mem_ctrl.rdQLenPdf::12                       0                       # What read queue length does an incoming req see (Count)
system.mem_ctrl.rdQLenPdf::13                       0                       # What read queue length does an incoming req see (Count)
system.mem_ctrl.rdQLenPdf::14                       0                       # What read queue length does an incoming req see (Count)
system.mem_ctrl.rdQLenPdf::15                       0                       # What read queue length does an incoming req see (Count)
system.mem_ctrl.rdQLenPdf::16                       0                       # What read queue length does an incoming req see (Count)
system.mem_ctrl.rdQLenPdf::17                       0                       # What read queue length does an incoming req see (Count)
system.mem_ctrl.rdQLenPdf::18                       0                       # What read queue length does an incoming req see (Count)
system.mem_ctrl.rdQLenPdf::19                       0                       # What read queue length does an incoming req see (Count)
system.mem_ctrl.rdQLenPdf::20                       0                       # What read queue length does an incoming req see (Count)
system.mem_ctrl.rdQLenPdf::21                       0                       # What read queue length does an incoming req see (Count)
system.mem_ctrl.rdQLenPdf::22                       0                       # What read queue length does an incoming req see (Count)
system.mem_ctrl.rdQLenPdf::23                       0                       # What read queue length does an incoming req see (Count)
system.mem_ctrl.rdQLenPdf::24                       0                       # What read queue length does an incoming req see (Count)
system.mem_ctrl.rdQLenPdf::25                       0                       # What read queue length does an incoming req see (Count)
system.mem_ctrl.rdQLenPdf::26                       0                       # What read queue length does an incoming req see (Count)
system.mem_ctrl.rdQLenPdf::27                       0                       # What read queue length does an incoming req see (Count)
system.mem_ctrl.rdQLenPdf::28                       0                       # What read queue length does an incoming req see (Count)
system.mem_ctrl.rdQLenPdf::29                       0                       # What read queue length does an incoming req see (Count)
system.mem_ctrl.rdQLenPdf::30                       0                       # What read queue length does an incoming req see (Count)
system.mem_ctrl.rdQLenPdf::31                       0                       # What read queue length does an incoming req see (Count)
system.mem_ctrl.wrQLenPdf::0                        1                       # What write queue length does an incoming req see (Count)
system.mem_ctrl.wrQLenPdf::1                        1                       # What write queue length does an incoming req see (Count)
system.mem_ctrl.wrQLenPdf::2                        1                       # What write queue length does an incoming req see (Count)
system.mem_ctrl.wrQLenPdf::3                        1                       # What write queue length does an incoming req see (Count)
system.mem_ctrl.wrQLenPdf::4                        1                       # What write queue length does an incoming req see (Count)
system.mem_ctrl.wrQLenPdf::5                        1                       # What write queue length does an incoming req see (Count)
system.mem_ctrl.wrQLenPdf::6                        1                       # What write queue length does an incoming req see (Count)
system.mem_ctrl.wrQLenPdf::7                        1                       # What write queue length does an incoming req see (Count)
system.mem_ctrl.wrQLenPdf::8                        1                       # What write queue length does an incoming req see (Count)
system.mem_ctrl.wrQLenPdf::9                        1                       # What write queue length does an incoming req see (Count)
system.mem_ctrl.wrQLenPdf::10                       1                       # What write queue length does an incoming req see (Count)
system.mem_ctrl.wrQLenPdf::11                       1                       # What write queue length does an incoming req see (Count)
system.mem_ctrl.wrQLenPdf::12                       1                       # What write queue length does an incoming req see (Count)
system.mem_ctrl.wrQLenPdf::13                       1                       # What write queue length does an incoming req see (Count)
system.mem_ctrl.wrQLenPdf::14                       1                       # What write queue length does an incoming req see (Count)
system.mem_ctrl.wrQLenPdf::15                   37305                       # What write queue length does an incoming req see (Count)
system.mem_ctrl.wrQLenPdf::16                   39742                       # What write queue length does an incoming req see (Count)
system.mem_ctrl.wrQLenPdf::17                   50841                       # What write queue length does an incoming req see (Count)
system.mem_ctrl.wrQLenPdf::18                   50843                       # What write queue length does an incoming req see (Count)
system.mem_ctrl.wrQLenPdf::19                   50843                       # What write queue length does an incoming req see (Count)
system.mem_ctrl.wrQLenPdf::20                   50842                       # What write queue length does an incoming req see (Count)
system.mem_ctrl.wrQLenPdf::21                   50839                       # What write queue length does an incoming req see (Count)
system.mem_ctrl.wrQLenPdf::22                   50841                       # What write queue length does an incoming req see (Count)
system.mem_ctrl.wrQLenPdf::23                   50859                       # What write queue length does an incoming req see (Count)
system.mem_ctrl.wrQLenPdf::24                   50839                       # What write queue length does an incoming req see (Count)
system.mem_ctrl.wrQLenPdf::25                   50839                       # What write queue length does an incoming req see (Count)
system.mem_ctrl.wrQLenPdf::26                   50837                       # What write queue length does an incoming req see (Count)
system.mem_ctrl.wrQLenPdf::27                   50837                       # What write queue length does an incoming req see (Count)
system.mem_ctrl.wrQLenPdf::28                   50839                       # What write queue length does an incoming req see (Count)
system.mem_ctrl.wrQLenPdf::29                   50838                       # What write queue length does an incoming req see (Count)
system.mem_ctrl.wrQLenPdf::30                   50837                       # What write queue length does an incoming req see (Count)
system.mem_ctrl.wrQLenPdf::31                   50837                       # What write queue length does an incoming req see (Count)
system.mem_ctrl.wrQLenPdf::32                   50837                       # What write queue length does an incoming req see (Count)
[...]
system.mem_ctrl.dram.bytesWritten::total     56992704                       # Number of bytes written to this memory (Byte)
system.mem_ctrl.dram.numReads::cpu.inst           699                       # Number of read requests responded to by this memory (Count)
system.mem_ctrl.dram.numReads::cpu.data       5389206                       # Number of read requests responded to by this memory (Count)
system.mem_ctrl.dram.numReads::total          5389905                       # Number of read requests responded to by this memory (Count)
system.mem_ctrl.dram.numWrites::writebacks       890511                       # Number of write requests responded to by this memory (Count)
system.mem_ctrl.dram.numWrites::total          890511                       # Number of write requests responded to by this memory (Count)
system.mem_ctrl.dram.bwRead::cpu.inst           16139                       # Total read bandwidth from this memory ((Byte/Second))
system.mem_ctrl.dram.bwRead::cpu.data       124432871                       # Total read bandwidth from this memory ((Byte/Second))
system.mem_ctrl.dram.bwRead::total          124449011                       # Total read bandwidth from this memory ((Byte/Second))
system.mem_ctrl.dram.bwInstRead::cpu.inst        16139                       # Instruction read bandwidth from this memory ((Byte/Second))
system.mem_ctrl.dram.bwInstRead::total          16139                       # Instruction read bandwidth from this memory ((Byte/Second))
system.mem_ctrl.dram.bwWrite::writebacks     20561255                       # Write bandwidth from this memory ((Byte/Second))
system.mem_ctrl.dram.bwWrite::total          20561255                       # Write bandwidth from this memory ((Byte/Second))
system.mem_ctrl.dram.bwTotal::writebacks     20561255                       # Total bandwidth to/from this memory ((Byte/Second))
system.mem_ctrl.dram.bwTotal::cpu.inst          16139                       # Total bandwidth to/from this memory ((Byte/Second))
system.mem_ctrl.dram.bwTotal::cpu.data      124432871                       # Total bandwidth to/from this memory ((Byte/Second))
system.mem_ctrl.dram.bwTotal::total         145010266                       # Total bandwidth to/from this memory ((Byte/Second))
system.mem_ctrl.dram.readBursts               5384767                       # Number of DRAM read bursts (Count)
system.mem_ctrl.dram.writeBursts               890485                       # Number of DRAM write bursts (Count)
system.mem_ctrl.dram.perBankRdBursts::0        338926                       # Per bank write bursts (Count)
system.mem_ctrl.dram.perBankRdBursts::1        336804                       # Per bank write bursts (Count)
system.mem_ctrl.dram.perBankRdBursts::2        326581                       # Per bank write bursts (Count)
system.mem_ctrl.dram.perBankRdBursts::3        336080                       # Per bank write bursts (Count)
system.mem_ctrl.dram.perBankRdBursts::4        326402                       # Per bank write bursts (Count)
system.mem_ctrl.dram.perBankRdBursts::5        333260                       # Per bank write bursts (Count)
system.mem_ctrl.dram.perBankRdBursts::6        333753                       # Per bank write bursts (Count)
system.mem_ctrl.dram.perBankRdBursts::7        331608                       # Per bank write bursts (Count)
system.mem_ctrl.dram.perBankRdBursts::8        336492                       # Per bank write bursts (Count)
system.mem_ctrl.dram.perBankRdBursts::9        325110                       # Per bank write bursts (Count)
system.mem_ctrl.dram.perBankRdBursts::10       337877                       # Per bank write bursts (Count)
system.mem_ctrl.dram.perBankRdBursts::11       340072                       # Per bank write bursts (Count)
system.mem_ctrl.dram.perBankRdBursts::12       346241                       # Per bank write bursts (Count)
system.mem_ctrl.dram.perBankRdBursts::13       343774                       # Per bank write bursts (Count)
system.mem_ctrl.dram.perBankRdBursts::14       343062                       # Per bank write bursts (Count)
system.mem_ctrl.dram.perBankRdBursts::15       348725                       # Per bank write bursts (Count)
system.mem_ctrl.dram.perBankWrBursts::0         51143                       # Per bank write bursts (Count)
system.mem_ctrl.dram.perBankWrBursts::1         58983                       # Per bank write bursts (Count)
system.mem_ctrl.dram.perBankWrBursts::2         50678                       # Per bank write bursts (Count)
system.mem_ctrl.dram.perBankWrBursts::3         60132                       # Per bank write bursts (Count)
system.mem_ctrl.dram.perBankWrBursts::4         53206                       # Per bank write bursts (Count)
system.mem_ctrl.dram.perBankWrBursts::5         53171                       # Per bank write bursts (Count)
system.mem_ctrl.dram.perBankWrBursts::6         57736                       # Per bank write bursts (Count)
system.mem_ctrl.dram.perBankWrBursts::7         51040                       # Per bank write bursts (Count)
system.mem_ctrl.dram.perBankWrBursts::8         59098                       # Per bank write bursts (Count)
system.mem_ctrl.dram.perBankWrBursts::9         50251                       # Per bank write bursts (Count)
system.mem_ctrl.dram.perBankWrBursts::10        57406                       # Per bank write bursts (Count)
system.mem_ctrl.dram.perBankWrBursts::11        56413                       # Per bank write bursts (Count)
system.mem_ctrl.dram.perBankWrBursts::12        58197                       # Per bank write bursts (Count)
system.mem_ctrl.dram.perBankWrBursts::13        58301                       # Per bank write bursts (Count)
system.mem_ctrl.dram.perBankWrBursts::14        56158                       # Per bank write bursts (Count)
system.mem_ctrl.dram.perBankWrBursts::15        58572                       # Per bank write bursts (Count)
system.mem_ctrl.dram.totQLat             117591430250                       # Total ticks spent queuing (Tick)
system.mem_ctrl.dram.totBusLat            26923835000                       # Total ticks spent in databus transfers (Tick)
system.mem_ctrl.dram.totMemAccLat        218555811500                       # Total ticks spent from burst creation until serviced by the DRAM (Tick)
system.mem_ctrl.dram.avgQLat                 21837.79                       # Average queueing delay per DRAM burst ((Tick/Count))
system.mem_ctrl.dram.avgBusLat                5000.00                       # Average bus latency per DRAM burst ((Tick/Count))
system.mem_ctrl.dram.avgMemAccLat            40587.79                       # Average memory access latency per DRAM burst ((Tick/Count))
system.mem_ctrl.dram.readRowHits              1116515                       # Number of row buffer hits during reads (Count)
system.mem_ctrl.dram.writeRowHits              336749                       # Number of row buffer hits during writes (Count)
system.mem_ctrl.dram.readRowHitRate             20.73                       # Row buffer hit rate for reads (Ratio)
system.mem_ctrl.dram.writeRowHitRate            37.82                       # Row buffer hit rate for writes (Ratio)
system.mem_ctrl.dram.bytesPerActivate::samples      4821988                       # Bytes accessed per row activation (Byte)
system.mem_ctrl.dram.bytesPerActivate::mean    83.288496                       # Bytes accessed per row activation (Byte)
system.mem_ctrl.dram.bytesPerActivate::gmean    70.895277                       # Bytes accessed per row activation (Byte)
system.mem_ctrl.dram.bytesPerActivate::stdev   104.040593                       # Bytes accessed per row activation (Byte)
system.mem_ctrl.dram.bytesPerActivate::0-127      4407668     91.41%     91.41% # Bytes accessed per row activation (Byte)
system.mem_ctrl.dram.bytesPerActivate::128-255       290766      6.03%     97.44% # Bytes accessed per row activation (Byte)
system.mem_ctrl.dram.bytesPerActivate::256-383        38063      0.79%     98.23% # Bytes accessed per row activation (Byte)
system.mem_ctrl.dram.bytesPerActivate::384-511        14845      0.31%     98.53% # Bytes accessed per row activation (Byte)
system.mem_ctrl.dram.bytesPerActivate::512-639        11124      0.23%     98.77% # Bytes accessed per row activation (Byte)
system.mem_ctrl.dram.bytesPerActivate::640-767         8830      0.18%     98.95% # Bytes accessed per row activation (Byte)
system.mem_ctrl.dram.bytesPerActivate::768-895         7985      0.17%     99.11% # Bytes accessed per row activation (Byte)
system.mem_ctrl.dram.bytesPerActivate::896-1023         6186      0.13%     99.24% # Bytes accessed per row activation (Byte)
system.mem_ctrl.dram.bytesPerActivate::1024-1151        36521      0.76%    100.00% # Bytes accessed per row activation (Byte)
system.mem_ctrl.dram.bytesPerActivate::total      4821988                       # Bytes accessed per row activation (Byte)
system.mem_ctrl.dram.bytesRead              344625088                       # Total bytes read (Byte)
system.mem_ctrl.dram.bytesWritten            56991040                       # Total bytes written (Byte)
system.mem_ctrl.dram.avgRdBW               124.330378                       # Average DRAM read bandwidth in MiBytes/s ((Byte/Second))
system.mem_ctrl.dram.avgWrBW                20.560655                       # Average DRAM write bandwidth in MiBytes/s ((Byte/Second))
system.mem_ctrl.dram.peakBW                  12800.00                       # Theoretical peak bandwidth in MiByte/s ((Byte/Second))
system.mem_ctrl.dram.busUtil                     1.13                       # Data bus utilization in percentage (Ratio)
system.mem_ctrl.dram.busUtilRead                 0.97                       # Data bus utilization in percentage for reads (Ratio)
system.mem_ctrl.dram.busUtilWrite                0.16                       # Data bus utilization in percentage for writes (Ratio)
system.mem_ctrl.dram.pageHitRate                23.16                       # Row buffer hit rate, read and write combined (Ratio)
system.mem_ctrl.dram.power_state.pwrStateResidencyTicks::UNDEFINED 2771849434000                       # Cumulative time (in ticks) in various power states (Tick)
system.mem_ctrl.dram.rank0.actEnergy      17132280060                       # Energy for activate commands per rank (pJ) (Joule)
system.mem_ctrl.dram.rank0.preEnergy       9106022805                       # Energy for precharge commands per rank (pJ) (Joule)
system.mem_ctrl.dram.rank0.readEnergy     19016775960                       # Energy for read commands per rank (pJ) (Joule)
system.mem_ctrl.dram.rank0.writeEnergy     2276384580                       # Energy for write commands per rank (pJ) (Joule)
system.mem_ctrl.dram.rank0.refreshEnergy 218806922880.000031                       # Energy for refresh commands per rank (pJ) (Joule)
system.mem_ctrl.dram.rank0.actBackEnergy 775274862660                       # Energy for active background per rank (pJ) (Joule)
system.mem_ctrl.dram.rank0.preBackEnergy 411527140800                       # Energy for precharge background per rank (pJ) (Joule)
system.mem_ctrl.dram.rank0.actPowerDownEnergy            0                       # Energy for active power-down per rank (pJ) (Joule)
system.mem_ctrl.dram.rank0.prePowerDownEnergy            0                       # Energy for precharge power-down per rank (pJ) (Joule)
system.mem_ctrl.dram.rank0.selfRefreshEnergy            0                       # Energy for self refresh per rank (pJ) (Joule)
system.mem_ctrl.dram.rank0.totalEnergy   1453140389745                       # Total energy per rank (pJ) (Joule)
system.mem_ctrl.dram.rank0.averagePower    524.249395                       # Core power per rank (mW) (Watt)
system.mem_ctrl.dram.rank0.totalIdleTime            0                       # Total Idle time Per DRAM Rank (Tick)
system.mem_ctrl.dram.rank0.pwrStateTime::IDLE 1062703711500                       # Time in different power states (Tick)
system.mem_ctrl.dram.rank0.pwrStateTime::REF  92557920000                       # Time in different power states (Tick)
system.mem_ctrl.dram.rank0.pwrStateTime::SREF            0                       # Time in different power states (Tick)
system.mem_ctrl.dram.rank0.pwrStateTime::PRE_PDN            0                       # Time in different power states (Tick)
system.mem_ctrl.dram.rank0.pwrStateTime::ACT 1616587802500                       # Time in different power states (Tick)
system.mem_ctrl.dram.rank0.pwrStateTime::ACT_PDN            0                       # Time in different power states (Tick)
system.mem_ctrl.dram.rank1.actEnergy      17296714260                       # Energy for activate commands per rank (pJ) (Joule)
system.mem_ctrl.dram.rank1.preEnergy       9193421655                       # Energy for precharge commands per rank (pJ) (Joule)
system.mem_ctrl.dram.rank1.readEnergy     19430460420                       # Energy for read commands per rank (pJ) (Joule)
system.mem_ctrl.dram.rank1.writeEnergy     2371947120                       # Energy for write commands per rank (pJ) (Joule)
system.mem_ctrl.dram.rank1.refreshEnergy 218806922880.000031                       # Energy for refresh commands per rank (pJ) (Joule)
system.mem_ctrl.dram.rank1.actBackEnergy 776470292310                       # Energy for active background per rank (pJ) (Joule)
system.mem_ctrl.dram.rank1.preBackEnergy 410520463200                       # Energy for precharge background per rank (pJ) (Joule)
system.mem_ctrl.dram.rank1.actPowerDownEnergy            0                       # Energy for active power-down per rank (pJ) (Joule)
system.mem_ctrl.dram.rank1.prePowerDownEnergy            0                       # Energy for precharge power-down per rank (pJ) (Joule)
system.mem_ctrl.dram.rank1.selfRefreshEnergy            0                       # Energy for self refresh per rank (pJ) (Joule)
system.mem_ctrl.dram.rank1.totalEnergy   1454090221845                       # Total energy per rank (pJ) (Joule)
system.mem_ctrl.dram.rank1.averagePower    524.592066                       # Core power per rank (mW) (Watt)
system.mem_ctrl.dram.rank1.totalIdleTime            0                       # Total Idle time Per DRAM Rank (Tick)
system.mem_ctrl.dram.rank1.pwrStateTime::IDLE 1060014009500                       # Time in different power states (Tick)
system.mem_ctrl.dram.rank1.pwrStateTime::REF  92557920000                       # Time in different power states (Tick)
system.mem_ctrl.dram.rank1.pwrStateTime::SREF            0                       # Time in different power states (Tick)
system.mem_ctrl.dram.rank1.pwrStateTime::PRE_PDN            0                       # Time in different power states (Tick)
system.mem_ctrl.dram.rank1.pwrStateTime::ACT 1619277504500                       # Time in different power states (Tick)
system.mem_ctrl.dram.rank1.pwrStateTime::ACT_PDN            0                       # Time in different power states (Tick)
system.mem_ctrl.power_state.pwrStateResidencyTicks::UNDEFINED 2771849434000                       # Cumulative time (in ticks) in various power states (Tick)
system.membus.transDist::ReadResp             5202339                       # Transaction distribution (Count)
system.membus.transDist::WritebackDirty        890511                       # Transaction distribution (Count)
system.membus.transDist::CleanEvict           4466183                       # Transaction distribution (Count)
system.membus.transDist::ReadExReq             187566                       # Transaction distribution (Count)
system.membus.transDist::ReadExResp            187566                       # Transaction distribution (Count)
system.membus.transDist::ReadSharedReq        5202339                       # Transaction distribution (Count)
system.membus.pktCount_system.l2cache.mem_side_port::system.mem_ctrl.port     16136504                       # Packet count per connected requestor and responder (Count)
system.membus.pktCount_system.l2cache.mem_side_port::total     16136504                       # Packet count per connected requestor and responder (Count)
system.membus.pktCount::total                16136504                       # Packet count per connected requestor and responder (Count)
system.membus.pktSize_system.l2cache.mem_side_port::system.mem_ctrl.port    401946624                       # Cumulative packet size per connected requestor and responder (Byte)
system.membus.pktSize_system.l2cache.mem_side_port::total    401946624                       # Cumulative packet size per connected requestor and responder (Byte)
system.membus.pktSize::total                401946624                       # Cumulative packet size per connected requestor and responder (Byte)
system.membus.snoops                                0                       # Total snoops (Count)
system.membus.snoopTraffic                          0                       # Total snoop traffic (Byte)
system.membus.snoopFanout::samples            5389905                       # Request fanout histogram (Count)
system.membus.snoopFanout::mean                     0                       # Request fanout histogram (Count)
system.membus.snoopFanout::stdev                    0                       # Request fanout histogram (Count)
system.membus.snoopFanout::underflows               0      0.00%      0.00% # Request fanout histogram (Count)
system.membus.snoopFanout::0                  5389905    100.00%    100.00% # Request fanout histogram (Count)
system.membus.snoopFanout::1                        0      0.00%    100.00% # Request fanout histogram (Count)
system.membus.snoopFanout::overflows                0      0.00%    100.00% # Request fanout histogram (Count)
system.membus.snoopFanout::min_value                0                       # Request fanout histogram (Count)
system.membus.snoopFanout::max_value                0                       # Request fanout histogram (Count)
system.membus.snoopFanout::total              5389905                       # Request fanout histogram (Count)
system.membus.power_state.pwrStateResidencyTicks::UNDEFINED 2771849434000                       # Cumulative time (in ticks) in various power states (Tick)
system.membus.reqLayer2.occupancy         14308643000                       # Layer occupancy (ticks) (Tick)
system.membus.reqLayer2.utilization               0.0                       # Layer utilization (Ratio)
system.membus.respLayer0.occupancy        29943491500                       # Layer occupancy (ticks) (Tick)
system.membus.respLayer0.utilization              0.0                       # Layer utilization (Ratio)
system.membus.snoop_filter.totRequests       10746599                       # Total number of requests made to the snoop filter. (Count)
system.membus.snoop_filter.hitSingleRequests      5356694                       # Number of requests hitting in the snoop filter with a single holder of the requested data. (Count)
system.membus.snoop_filter.hitMultiRequests            0                       # Number of requests hitting in the snoop filter with multiple (>1) holders of the requested data. (Count)
system.membus.snoop_filter.totSnoops                0                       # Total number of snoops made to the snoop filter. (Count)
system.membus.snoop_filter.hitSingleSnoops            0                       # Number of snoops hitting in the snoop filter with a single holder of the requested data. (Count)
system.membus.snoop_filter.hitMultiSnoops            0                       # Number of snoops hitting in the snoop filter with multiple (>1) holders of the requested data. (Count)
system.workload.inst.arm                            0                       # number of arm instructions executed (Count)
system.workload.inst.quiesce                        0                       # number of quiesce instructions executed (Count)

---------- End Simulation Statistics   ----------
