
---------- Begin Simulation Statistics ----------
simSeconds                                   0.007821                       # Number of seconds simulated (Second)
simTicks                                   7821020000                       # Number of ticks simulated (Tick)
finalTick                                  7821020000                       # Number of ticks from beginning of simulation (restored from checkpoints and never reset) (Tick)
simFreq                                  1000000000000                       # The number of ticks per simulated second ((Tick/Second))
hostSeconds                                     49.84                       # Real time elapsed on the host (Second)
hostTickRate                                156914228                       # The number of ticks simulated per host second (ticks/s) ((Tick/Second))
hostMemory                                    8537796                       # Number of bytes of host memory used (Byte)
simInsts                                      5000001                       # Number of instructions simulated (Count)
simOps                                        6976589                       # Number of ops (including micro ops) simulated (Count)
hostInstRate                                   100316                       # Simulator instruction rate (inst/s) ((Count/Second))
hostOpRate                                     139972                       # Simulator op (including micro ops) rate (op/s) ((Count/Second))
system.clk_domain.clock                          1000                       # Clock period in ticks (Tick)
system.clk_domain.voltage_domain.voltage            1                       # Voltage in Volts (Volt)
system.cpu.numCycles                          7821021                       # Number of cpu cycles simulated (Cycle)
system.cpu.numWorkItemsStarted                      0                       # Number of work items this cpu started (Count)
system.cpu.numWorkItemsCompleted                    0                       # Number of work items this cpu completed (Count)
system.cpu.instsAdded                        21146799                       # Number of instructions added to the IQ (excludes non-spec) (Count)
system.cpu.nonSpecInstsAdded                     3005                       # Number of non-speculative instructions added to the IQ (Count)
system.cpu.instsIssued                       15887604                       # Number of instructions issued (Count)
system.cpu.squashedInstsIssued                  20661                       # Number of squashed instructions issued (Count)
system.cpu.squashedInstsExamined             14173152                       # Number of squashed instructions iterated over during squash; mainly for profiling (Count)
system.cpu.squashedOperandsExamined          26646266                       # Number of squashed operands that are examined and possibly removed from graph (Count)
system.cpu.squashedNonSpecRemoved                2735                       # Number of squashed non-spec instructions that were removed (Count)
system.cpu.numIssuedDist::samples             7760017                       # Number of insts issued each cycle (Count)
system.cpu.numIssuedDist::mean               2.047367                       # Number of insts issued each cycle (Count)
system.cpu.numIssuedDist::stdev              2.247422                       # Number of insts issued each cycle (Count)
system.cpu.numIssuedDist::underflows                0      0.00%      0.00% # Number of insts issued each cycle (Count)
system.cpu.numIssuedDist::0                   3393575     43.73%     43.73% # Number of insts issued each cycle (Count)
system.cpu.numIssuedDist::1                    520157      6.70%     50.43% # Number of insts issued each cycle (Count)
system.cpu.numIssuedDist::2                    713465      9.19%     59.63% # Number of insts issued each cycle (Count)
system.cpu.numIssuedDist::3                    996250     12.84%     72.47% # Number of insts issued each cycle (Count)
system.cpu.numIssuedDist::4                    888961     11.46%     83.92% # Number of insts issued each cycle (Count)
system.cpu.numIssuedDist::5                    564440      7.27%     91.20% # Number of insts issued each cycle (Count)
system.cpu.numIssuedDist::6                    349924      4.51%     95.71% # Number of insts issued each cycle (Count)
system.cpu.numIssuedDist::7                    191781      2.47%     98.18% # Number of insts issued each cycle (Count)
system.cpu.numIssuedDist::8                    141464      1.82%    100.00% # Number of insts issued each cycle (Count)
system.cpu.numIssuedDist::overflows                 0      0.00%    100.00% # Number of insts issued each cycle (Count)
system.cpu.numIssuedDist::min_value                 0                       # Number of insts issued each cycle (Count)
system.cpu.numIssuedDist::max_value                 8                       # Number of insts issued each cycle (Count)
system.cpu.numIssuedDist::total               7760017                       # Number of insts issued each cycle (Count)
system.cpu.statFuBusy::No_OpClass                   0      0.00%      0.00% # attempts to use FU when none available (Count)
system.cpu.statFuBusy::IntAlu                   28938     14.78%     14.78% # attempts to use FU when none available (Count)
system.cpu.statFuBusy::IntMult                      0      0.00%     14.78% # attempts to use FU when none available (Count)
system.cpu.statFuBusy::IntDiv                       0      0.00%     14.78% # attempts to use FU when none available (Count)
system.cpu.statFuBusy::FloatAdd                     0      0.00%     14.78% # attempts to use FU when none available (Count)
system.cpu.statFuBusy::FloatCmp                     0      0.00%     14.78% # attempts to use FU when none available (Count)
system.cpu.statFuBusy::FloatCvt                     0      0.00%     14.78% # attempts to use FU when none available (Count)
system.cpu.statFuBusy::FloatMult                    0      0.00%     14.78% # attempts to use FU when none available (Count)
system.cpu.statFuBusy::FloatMultAcc                 0      0.00%     14.78% # attempts to use FU when none available (Count)
system.cpu.statFuBusy::FloatDiv                     0      0.00%     14.78% # attempts to use FU when none available (Count)
system.cpu.statFuBusy::FloatMisc                    0      0.00%     14.78% # attempts to use FU when none available (Count)
system.cpu.statFuBusy::FloatSqrt                    0      0.00%     14.78% # attempts to use FU when none available (Count)
system.cpu.statFuBusy::SimdAdd                      0      0.00%     14.78% # attempts to use FU when none available (Count)
system.cpu.statFuBusy::SimdAddAcc                   0      0.00%     14.78% # attempts to use FU when none available (Count)
system.cpu.statFuBusy::SimdAlu                    931      0.48%     15.26% # attempts to use FU when none available (Count)
system.cpu.statFuBusy::SimdCmp                      0      0.00%     15.26% # attempts to use FU when none available (Count)
system.cpu.statFuBusy::SimdCvt                    468      0.24%     15.50% # attempts to use FU when none available (Count)
system.cpu.statFuBusy::SimdMisc                    97      0.05%     15.55% # attempts to use FU when none available (Count)
system.cpu.statFuBusy::SimdMult                     0      0.00%     15.55% # attempts to use FU when none available (Count)
system.cpu.statFuBusy::SimdMultAcc                  0      0.00%     15.55% # attempts to use FU when none available (Count)
system.cpu.statFuBusy::SimdShift                    0      0.00%     15.55% # attempts to use FU when none available (Count)
system.cpu.statFuBusy::SimdShiftAcc                 0      0.00%     15.55% # attempts to use FU when none available (Count)
system.cpu.statFuBusy::SimdDiv                      0      0.00%     15.55% # attempts to use FU when none available (Count)
system.cpu.statFuBusy::SimdSqrt                     0      0.00%     15.55% # attempts to use FU when none available (Count)
system.cpu.statFuBusy::SimdFloatAdd                37      0.02%     15.57% # attempts to use FU when none available (Count)
system.cpu.statFuBusy::SimdFloatAlu                 0      0.00%     15.57% # attempts to use FU when none available (Count)
system.cpu.statFuBusy::SimdFloatCmp                 0      0.00%     15.57% # attempts to use FU when none available (Count)
system.cpu.statFuBusy::SimdFloatCvt                 0      0.00%     15.57% # attempts to use FU when none available (Count)
system.cpu.statFuBusy::SimdFloatDiv                 0      0.00%     15.57% # attempts to use FU when none available (Count)
system.cpu.statFuBusy::SimdFloatMisc                0      0.00%     15.57% # attempts to use FU when none available (Count)
system.cpu.statFuBusy::SimdFloatMult              214      0.11%     15.68% # attempts to use FU when none available (Count)
system.cpu.statFuBusy::SimdFloatMultAcc             0      0.00%     15.68% # attempts to use FU when none available (Count)
system.cpu.statFuBusy::SimdFloatSqrt                0      0.00%     15.68% # attempts to use FU when none available (Count)
system.cpu.statFuBusy::SimdReduceAdd                0      0.00%     15.68% # attempts to use FU when none available (Count)
system.cpu.statFuBusy::SimdReduceAlu                0      0.00%     15.68% # attempts to use FU when none available (Count)
system.cpu.statFuBusy::SimdReduceCmp                0      0.00%     15.68% # attempts to use FU when none available (Count)
system.cpu.statFuBusy::SimdFloatReduceAdd            0      0.00%     15.68% # attempts to use FU when none available (Count)
system.cpu.statFuBusy::SimdFloatReduceCmp            0      0.00%     15.68% # attempts to use FU when none available (Count)
system.cpu.statFuBusy::SimdAes                      0      0.00%     15.68% # attempts to use FU when none available (Count)
system.cpu.statFuBusy::SimdAesMix                   0      0.00%     15.68% # attempts to use FU when none available (Count)
system.cpu.statFuBusy::SimdSha1Hash                 0      0.00%     15.68% # attempts to use FU when none available (Count)
system.cpu.statFuBusy::SimdSha1Hash2                0      0.00%     15.68% # attempts to use FU when none available (Count)
system.cpu.statFuBusy::SimdSha256Hash               0      0.00%     15.68% # attempts to use FU when none available (Count)
system.cpu.statFuBusy::SimdSha256Hash2              0      0.00%     15.68% # attempts to use FU when none available (Count)
system.cpu.statFuBusy::SimdShaSigma2                0      0.00%     15.68% # attempts to use FU when none available (Count)
system.cpu.statFuBusy::SimdShaSigma3                0      0.00%     15.68% # attempts to use FU when none available (Count)
system.cpu.statFuBusy::SimdPredAlu                  0      0.00%     15.68% # attempts to use FU when none available (Count)
system.cpu.statFuBusy::MemRead                 101898     52.06%     67.73% # attempts to use FU when none available (Count)
system.cpu.statFuBusy::MemWrite                 61867     31.61%     99.34% # attempts to use FU when none available (Count)
system.cpu.statFuBusy::FloatMemRead              1049      0.54%     99.88% # attempts to use FU when none available (Count)
system.cpu.statFuBusy::FloatMemWrite              240      0.12%    100.00% # attempts to use FU when none available (Count)
system.cpu.statFuBusy::IprAccess                    0      0.00%    100.00% # attempts to use FU when none available (Count)
system.cpu.statFuBusy::InstPrefetch                 0      0.00%    100.00% # attempts to use FU when none available (Count)
system.cpu.statIssuedInstType_0::No_OpClass        33194      0.21%      0.21% # Number of instructions issued per FU type, per thread (Count)
system.cpu.statIssuedInstType_0::IntAlu       9114778     57.37%     57.58% # Number of instructions issued per FU type, per thread (Count)
system.cpu.statIssuedInstType_0::IntMult        11214      0.07%     57.65% # Number of instructions issued per FU type, per thread (Count)
system.cpu.statIssuedInstType_0::IntDiv         67030      0.42%     58.07% # Number of instructions issued per FU type, per thread (Count)
system.cpu.statIssuedInstType_0::FloatAdd       217232      1.37%     59.44% # Number of instructions issued per FU type, per thread (Count)
system.cpu.statIssuedInstType_0::FloatCmp            0      0.00%     59.44% # Number of instructions issued per FU type, per thread (Count)
system.cpu.statIssuedInstType_0::FloatCvt            0      0.00%     59.44% # Number of instructions issued per FU type, per thread (Count)
system.cpu.statIssuedInstType_0::FloatMult            0      0.00%     59.44% # Number of instructions issued per FU type, per thread (Count)
system.cpu.statIssuedInstType_0::FloatMultAcc            0      0.00%     59.44% # Number of instructions issued per FU type, per thread (Count)
system.cpu.statIssuedInstType_0::FloatDiv            0      0.00%     59.44% # Number of instructions issued per FU type, per thread (Count)
system.cpu.statIssuedInstType_0::FloatMisc            0      0.00%     59.44% # Number of instructions issued per FU type, per thread (Count)
system.cpu.statIssuedInstType_0::FloatSqrt            0      0.00%     59.44% # Number of instructions issued per FU type, per thread (Count)
system.cpu.statIssuedInstType_0::SimdAdd          490      0.00%     59.44% # Number of instructions issued per FU type, per thread (Count)
system.cpu.statIssuedInstType_0::SimdAddAcc            0      0.00%     59.44% # Number of instructions issued per FU type, per thread (Count)
system.cpu.statIssuedInstType_0::SimdAlu        29652      0.19%     59.63% # Number of instructions issued per FU type, per thread (Count)
system.cpu.statIssuedInstType_0::SimdCmp          214      0.00%     59.63% # Number of instructions issued per FU type, per thread (Count)
system.cpu.statIssuedInstType_0::SimdCvt        12379      0.08%     59.71% # Number of instructions issued per FU type, per thread (Count)
system.cpu.statIssuedInstType_0::SimdMisc        42203      0.27%     59.97% # Number of instructions issued per FU type, per thread (Count)
system.cpu.statIssuedInstType_0::SimdMult            0      0.00%     59.97% # Number of instructions issued per FU type, per thread (Count)
system.cpu.statIssuedInstType_0::SimdMultAcc            0      0.00%     59.97% # Number of instructions issued per FU type, per thread (Count)
system.cpu.statIssuedInstType_0::SimdShift          289      0.00%     59.98% # Number of instructions issued per FU type, per thread (Count)
system.cpu.statIssuedInstType_0::SimdShiftAcc            0      0.00%     59.98% # Number of instructions issued per FU type, per thread (Count)
system.cpu.statIssuedInstType_0::SimdDiv            0      0.00%     59.98% # Number of instructions issued per FU type, per thread (Count)
system.cpu.statIssuedInstType_0::SimdSqrt            0      0.00%     59.98% # Number of instructions issued per FU type, per thread (Count)
system.cpu.statIssuedInstType_0::SimdFloatAdd        67368      0.42%     60.40% # Number of instructions issued per FU type, per thread (Count)
system.cpu.statIssuedInstType_0::SimdFloatAlu            0      0.00%     60.40% # Number of instructions issued per FU type, per thread (Count)
system.cpu.statIssuedInstType_0::SimdFloatCmp            0      0.00%     60.40% # Number of instructions issued per FU type, per thread (Count)
system.cpu.statIssuedInstType_0::SimdFloatCvt        90031      0.57%     60.97% # Number of instructions issued per FU type, per thread (Count)
system.cpu.statIssuedInstType_0::SimdFloatDiv        11950      0.08%     61.04% # Number of instructions issued per FU type, per thread (Count)
system.cpu.statIssuedInstType_0::SimdFloatMisc            0      0.00%     61.04% # Number of instructions issued per FU type, per thread (Count)
system.cpu.statIssuedInstType_0::SimdFloatMult        32147      0.20%     61.24% # Number of instructions issued per FU type, per thread (Count)
system.cpu.statIssuedInstType_0::SimdFloatMultAcc            0      0.00%     61.24% # Number of instructions issued per FU type, per thread (Count)
system.cpu.statIssuedInstType_0::SimdFloatSqrt            0      0.00%     61.24% # Number of instructions issued per FU type, per thread (Count)
system.cpu.statIssuedInstType_0::SimdReduceAdd            0      0.00%     61.24% # Number of instructions issued per FU type, per thread (Count)
system.cpu.statIssuedInstType_0::SimdReduceAlu            0      0.00%     61.24% # Number of instructions issued per FU type, per thread (Count)
system.cpu.statIssuedInstType_0::SimdReduceCmp            0      0.00%     61.24% # Number of instructions issued per FU type, per thread (Count)
system.cpu.statIssuedInstType_0::SimdFloatReduceAdd            0      0.00%     61.24% # Number of instructions issued per FU type, per thread (Count)
system.cpu.statIssuedInstType_0::SimdFloatReduceCmp            0      0.00%     61.24% # Number of instructions issued per FU type, per thread (Count)
system.cpu.statIssuedInstType_0::SimdAes            0      0.00%     61.24% # Number of instructions issued per FU type, per thread (Count)
system.cpu.statIssuedInstType_0::SimdAesMix            0      0.00%     61.24% # Number of instructions issued per FU type, per thread (Count)
system.cpu.statIssuedInstType_0::SimdSha1Hash            0      0.00%     61.24% # Number of instructions issued per FU type, per thread (Count)
system.cpu.statIssuedInstType_0::SimdSha1Hash2            0      0.00%     61.24% # Number of instructions issued per FU type, per thread (Count)
system.cpu.statIssuedInstType_0::SimdSha256Hash            0      0.00%     61.24% # Number of instructions issued per FU type, per thread (Count)
system.cpu.statIssuedInstType_0::SimdSha256Hash2            0      0.00%     61.24% # Number of instructions issued per FU type, per thread (Count)
system.cpu.statIssuedInstType_0::SimdShaSigma2            0      0.00%     61.24% # Number of instructions issued per FU type, per thread (Count)
system.cpu.statIssuedInstType_0::SimdShaSigma3            0      0.00%     61.24% # Number of instructions issued per FU type, per thread (Count)
system.cpu.statIssuedInstType_0::SimdPredAlu            0      0.00%     61.24% # Number of instructions issued per FU type, per thread (Count)
system.cpu.statIssuedInstType_0::MemRead      5006098     31.51%     92.75% # Number of instructions issued per FU type, per thread (Count)
system.cpu.statIssuedInstType_0::MemWrite       938485      5.91%     98.66% # Number of instructions issued per FU type, per thread (Count)
system.cpu.statIssuedInstType_0::FloatMemRead       176588      1.11%     99.77% # Number of instructions issued per FU type, per thread (Count)
system.cpu.statIssuedInstType_0::FloatMemWrite        36262      0.23%    100.00% # Number of instructions issued per FU type, per thread (Count)
system.cpu.statIssuedInstType_0::IprAccess            0      0.00%    100.00% # Number of instructions issued per FU type, per thread (Count)
system.cpu.statIssuedInstType_0::InstPrefetch            0      0.00%    100.00% # Number of instructions issued per FU type, per thread (Count)
system.cpu.statIssuedInstType_0::total       15887604                       # Number of instructions issued per FU type, per thread (Count)
system.cpu.issueRate                         2.031398                       # Inst issue rate ((Count/Cycle))
system.cpu.fuBusy                              195739                       # FU busy when requested (Count)
system.cpu.fuBusyRate                        0.012320                       # FU busy rate (busy events/executed inst) ((Count/Count))
system.cpu.intInstQueueReads                 38110618                       # Number of integer instruction queue reads (Count)
system.cpu.intInstQueueWrites                33794271                       # Number of integer instruction queue writes (Count)
system.cpu.intInstQueueWakeupAccesses        14295086                       # Number of integer instruction queue wakeup accesses (Count)
system.cpu.fpInstQueueReads                   1641003                       # Number of floating instruction queue reads (Count)
system.cpu.fpInstQueueWrites                  1529756                       # Number of floating instruction queue writes (Count)
system.cpu.fpInstQueueWakeupAccesses           787660                       # Number of floating instruction queue wakeup accesses (Count)
system.cpu.vecInstQueueReads                        0                       # Number of vector instruction queue reads (Count)
system.cpu.vecInstQueueWrites                       0                       # Number of vector instruction queue writes (Count)
system.cpu.vecInstQueueWakeupAccesses               0                       # Number of vector instruction queue wakeup accesses (Count)
system.cpu.intAluAccesses                    15230595                       # Number of integer alu accesses (Count)
system.cpu.fpAluAccesses                       819554                       # Number of floating point alu accesses (Count)
system.cpu.vecAluAccesses                           0                       # Number of vector alu accesses (Count)
system.cpu.numInsts                          15449242                       # Number of executed instructions (Count)
system.cpu.numLoadInsts                       4982091                       # Number of load instructions executed (Count)
system.cpu.numSquashedInsts                    438358                       # Number of squashed instructions skipped in execute (Count)
system.cpu.numSwp                                   0                       # Number of swp insts executed (Count)
system.cpu.numNop                                   0                       # Number of nop insts executed (Count)
system.cpu.numRefs                            5903523                       # Number of memory reference insts executed (Count)
system.cpu.numBranches                         640824                       # Number of branches executed (Count)
system.cpu.numStoreInsts                       921432                       # Number of stores executed (Count)
system.cpu.numRate                           1.975348                       # Inst execution rate ((Count/Cycle))
system.cpu.timesIdled                            1003                       # Number of times that the entire CPU went into an idle state and unscheduled itself (Count)
system.cpu.idleCycles                           61004                       # Total number of cycles that the CPU has spent unscheduled due to idling (Cycle)
system.cpu.committedInsts                     5000001                       # Number of Instructions Simulated (Count)
system.cpu.committedOps                       6976589                       # Number of Ops (including micro ops) Simulated (Count)
system.cpu.cpi                               1.564204                       # CPI: Cycles Per Instruction ((Cycle/Count))
system.cpu.totalCpi                          1.564204                       # CPI: Total CPI of All Threads ((Cycle/Count))
system.cpu.ipc                               0.639303                       # IPC: Instructions Per Cycle ((Count/Cycle))
system.cpu.totalIpc                          0.639303                       # IPC: Total IPC of All Threads ((Count/Cycle))
system.cpu.intRegfileReads                   17547637                       # Number of integer regfile reads (Count)
system.cpu.intRegfileWrites                  12638371                       # Number of integer regfile writes (Count)
system.cpu.fpRegfileReads                      901479                       # Number of floating regfile reads (Count)
system.cpu.fpRegfileWrites                     705888                       # Number of floating regfile writes (Count)
system.cpu.ccRegfileReads                     3092230                       # number of cc regfile reads (Count)
system.cpu.ccRegfileWrites                    4223976                       # number of cc regfile writes (Count)
system.cpu.miscRegfileReads                   7564003                       # number of misc regfile reads (Count)
system.cpu.MemDepUnit__0.insertedLoads        6304714                       # Number of loads inserted to the mem dependence unit. (Count)
system.cpu.MemDepUnit__0.insertedStores       1707945                       # Number of stores inserted to the mem dependence unit. (Count)
system.cpu.MemDepUnit__0.conflictingLoads      1397018                       # Number of conflicting loads. (Count)
system.cpu.MemDepUnit__0.conflictingStores       155796                       # Number of conflicting stores. (Count)
system.cpu.MemDepUnit__1.insertedLoads              0                       # Number of loads inserted to the mem dependence unit. (Count)
system.cpu.MemDepUnit__1.insertedStores             0                       # Number of stores inserted to the mem dependence unit. (Count)
system.cpu.MemDepUnit__1.conflictingLoads            0                       # Number of conflicting loads. (Count)
system.cpu.MemDepUnit__1.conflictingStores            0                       # Number of conflicting stores. (Count)
system.cpu.MemDepUnit__2.insertedLoads              0                       # Number of loads inserted to the mem dependence unit. (Count)
system.cpu.MemDepUnit__2.insertedStores             0                       # Number of stores inserted to the mem dependence unit. (Count)
system.cpu.MemDepUnit__2.conflictingLoads            0                       # Number of conflicting loads. (Count)
system.cpu.MemDepUnit__2.conflictingStores            0                       # Number of conflicting stores. (Count)
system.cpu.MemDepUnit__3.insertedLoads              0                       # Number of loads inserted to the mem dependence unit. (Count)
system.cpu.MemDepUnit__3.insertedStores             0                       # Number of stores inserted to the mem dependence unit. (Count)
system.cpu.MemDepUnit__3.conflictingLoads            0                       # Number of conflicting loads. (Count)
system.cpu.MemDepUnit__3.conflictingStores            0                       # Number of conflicting stores. (Count)
system.cpu.branchPred.lookups                 1301782                       # Number of BP lookups (Count)
system.cpu.branchPred.condPredicted            985220                       # Number of conditional branches predicted (Count)
system.cpu.branchPred.condIncorrect            252479                       # Number of conditional branches incorrect (Count)
system.cpu.branchPred.BTBLookups               229420                       # Number of BTB lookups (Count)
system.cpu.branchPred.BTBHits                  216322                       # Number of BTB hits (Count)
system.cpu.branchPred.BTBHitRatio            0.942908                       # BTB Hit Ratio (Ratio)
system.cpu.branchPred.RASUsed                   79635                       # Number of times the RAS was used to get a target. (Count)
system.cpu.branchPred.RASIncorrect                  5                       # Number of incorrect RAS predictions. (Count)
system.cpu.branchPred.indirectLookups            7507                       # Number of indirect predictor lookups. (Count)
system.cpu.branchPred.indirectHits               4636                       # Number of indirect target hits. (Count)
system.cpu.branchPred.indirectMisses             2871                       # Number of indirect misses. (Count)
system.cpu.branchPred.indirectMispredicted          204                       # Number of mispredicted indirect branches. (Count)
system.cpu.commit.commitSquashedInsts        14172812                       # The number of squashed insts skipped by commit (Count)
system.cpu.commit.commitNonSpecStalls             270                       # The number of times commit has been forced to stall to communicate backwards (Count)
system.cpu.commit.branchMispredicts            245326                       # The number of times a branch was mispredicted (Count)
system.cpu.commit.numCommittedDist::samples      5784301                       # Number of insts commited each cycle (Count)
system.cpu.commit.numCommittedDist::mean     1.206125                       # Number of insts commited each cycle (Count)
system.cpu.commit.numCommittedDist::stdev     1.936001                       # Number of insts commited each cycle (Count)
system.cpu.commit.numCommittedDist::underflows            0      0.00%      0.00% # Number of insts commited each cycle (Count)
system.cpu.commit.numCommittedDist::0         3058663     52.88%     52.88% # Number of insts commited each cycle (Count)
system.cpu.commit.numCommittedDist::1         1345373     23.26%     76.14% # Number of insts commited each cycle (Count)
system.cpu.commit.numCommittedDist::2          456408      7.89%     84.03% # Number of insts commited each cycle (Count)
system.cpu.commit.numCommittedDist::3          195170      3.37%     87.40% # Number of insts commited each cycle (Count)
system.cpu.commit.numCommittedDist::4          258093      4.46%     91.86% # Number of insts commited each cycle (Count)
system.cpu.commit.numCommittedDist::5          107275      1.85%     93.72% # Number of insts commited each cycle (Count)
system.cpu.commit.numCommittedDist::6          119796      2.07%     95.79% # Number of insts commited each cycle (Count)
system.cpu.commit.numCommittedDist::7          102817      1.78%     97.57% # Number of insts commited each cycle (Count)
system.cpu.commit.numCommittedDist::8          140706      2.43%    100.00% # Number of insts commited each cycle (Count)
system.cpu.commit.numCommittedDist::overflows            0      0.00%    100.00% # Number of insts commited each cycle (Count)
system.cpu.commit.numCommittedDist::min_value            0                       # Number of insts commited each cycle (Count)
system.cpu.commit.numCommittedDist::max_value            8                       # Number of insts commited each cycle (Count)
system.cpu.commit.numCommittedDist::total      5784301                       # Number of insts commited each cycle (Count)
system.cpu.commit.instsCommitted              5000001                       # Number of instructions committed (Count)
system.cpu.commit.opsCommitted                6976589                       # Number of ops (including micro ops) committed (Count)
system.cpu.commit.memRefs                     2514503                       # Number of memory references committed (Count)
system.cpu.commit.loads                       2106300                       # Number of loads committed (Count)
system.cpu.commit.amos                              0                       # Number of atomic instructions committed (Count)
system.cpu.commit.membars                         180                       # Number of memory barriers committed (Count)
system.cpu.commit.branches                     371241                       # Number of branches committed (Count)
system.cpu.commit.vectorInstructions                0                       # Number of committed Vector instructions. (Count)
system.cpu.commit.floating                     543166                       # Number of committed floating point instructions. (Count)
system.cpu.commit.integer                     6558855                       # Number of committed integer instructions. (Count)
system.cpu.commit.functionCalls                 14689                       # Number of function calls committed. (Count)
system.cpu.commit.committedInstType_0::No_OpClass         2897      0.04%      0.04% # Class of committed instruction (Count)
system.cpu.commit.committedInstType_0::IntAlu      4041683     57.93%     57.97% # Class of committed instruction (Count)
system.cpu.commit.committedInstType_0::IntMult        11191      0.16%     58.13% # Class of committed instruction (Count)
system.cpu.commit.committedInstType_0::IntDiv        66952      0.96%     59.09% # Class of committed instruction (Count)
system.cpu.commit.committedInstType_0::FloatAdd       142405      2.04%     61.13% # Class of committed instruction (Count)
system.cpu.commit.committedInstType_0::FloatCmp            0      0.00%     61.13% # Class of committed instruction (Count)
system.cpu.commit.committedInstType_0::FloatCvt            0      0.00%     61.13% # Class of committed instruction (Count)
system.cpu.commit.committedInstType_0::FloatMult            0      0.00%     61.13% # Class of committed instruction (Count)
system.cpu.commit.committedInstType_0::FloatMultAcc            0      0.00%     61.13% # Class of committed instruction (Count)
system.cpu.commit.committedInstType_0::FloatDiv            0      0.00%     61.13% # Class of committed instruction (Count)
system.cpu.commit.committedInstType_0::FloatMisc            0      0.00%     61.13% # Class of committed instruction (Count)
system.cpu.commit.committedInstType_0::FloatSqrt            0      0.00%     61.13% # Class of committed instruction (Count)
system.cpu.commit.committedInstType_0::SimdAdd          450      0.01%     61.14% # Class of committed instruction (Count)
system.cpu.commit.committedInstType_0::SimdAddAcc            0      0.00%     61.14% # Class of committed instruction (Count)
system.cpu.commit.committedInstType_0::SimdAlu        21858      0.31%     61.45% # Class of committed instruction (Count)
system.cpu.commit.committedInstType_0::SimdCmp          204      0.00%     61.46% # Class of committed instruction (Count)
system.cpu.commit.committedInstType_0::SimdCvt        11920      0.17%     61.63% # Class of committed instruction (Count)
system.cpu.commit.committedInstType_0::SimdMisc        31719      0.45%     62.08% # Class of committed instruction (Count)
system.cpu.commit.committedInstType_0::SimdMult            0      0.00%     62.08% # Class of committed instruction (Count)
system.cpu.commit.committedInstType_0::SimdMultAcc            0      0.00%     62.08% # Class of committed instruction (Count)
system.cpu.commit.committedInstType_0::SimdShift          110      0.00%     62.08% # Class of committed instruction (Count)
system.cpu.commit.committedInstType_0::SimdShiftAcc            0      0.00%     62.08% # Class of committed instruction (Count)
system.cpu.commit.committedInstType_0::SimdDiv            0      0.00%     62.08% # Class of committed instruction (Count)
system.cpu.commit.committedInstType_0::SimdSqrt            0      0.00%     62.08% # Class of committed instruction (Count)
system.cpu.commit.committedInstType_0::SimdFloatAdd        49341      0.71%     62.79% # Class of committed instruction (Count)
system.cpu.commit.committedInstType_0::SimdFloatAlu            0      0.00%     62.79% # Class of committed instruction (Count)
system.cpu.commit.committedInstType_0::SimdFloatCmp            0      0.00%     62.79% # Class of committed instruction (Count)
system.cpu.commit.committedInstType_0::SimdFloatCvt        52450      0.75%     63.54% # Class of committed instruction (Count)
system.cpu.commit.committedInstType_0::SimdFloatDiv         5978      0.09%     63.63% # Class of committed instruction (Count)
system.cpu.commit.committedInstType_0::SimdFloatMisc            0      0.00%     63.63% # Class of committed instruction (Count)
system.cpu.commit.committedInstType_0::SimdFloatMult        22928      0.33%     63.96% # Class of committed instruction (Count)
system.cpu.commit.committedInstType_0::SimdFloatMultAcc            0      0.00%     63.96% # Class of committed instruction (Count)
system.cpu.commit.committedInstType_0::SimdFloatSqrt            0      0.00%     63.96% # Class of committed instruction (Count)
system.cpu.commit.committedInstType_0::SimdReduceAdd            0      0.00%     63.96% # Class of committed instruction (Count)
system.cpu.commit.committedInstType_0::SimdReduceAlu            0      0.00%     63.96% # Class of committed instruction (Count)
system.cpu.commit.committedInstType_0::SimdReduceCmp            0      0.00%     63.96% # Class of committed instruction (Count)
system.cpu.commit.committedInstType_0::SimdFloatReduceAdd            0      0.00%     63.96% # Class of committed instruction (Count)
system.cpu.commit.committedInstType_0::SimdFloatReduceCmp            0      0.00%     63.96% # Class of committed instruction (Count)
system.cpu.commit.committedInstType_0::SimdAes            0      0.00%     63.96% # Class of committed instruction (Count)
system.cpu.commit.committedInstType_0::SimdAesMix            0      0.00%     63.96% # Class of committed instruction (Count)
system.cpu.commit.committedInstType_0::SimdSha1Hash            0      0.00%     63.96% # Class of committed instruction (Count)
system.cpu.commit.committedInstType_0::SimdSha1Hash2            0      0.00%     63.96% # Class of committed instruction (Count)
system.cpu.commit.committedInstType_0::SimdSha256Hash            0      0.00%     63.96% # Class of committed instruction (Count)
system.cpu.commit.committedInstType_0::SimdSha256Hash2            0      0.00%     63.96% # Class of committed instruction (Count)
system.cpu.commit.committedInstType_0::SimdShaSigma2            0      0.00%     63.96% # Class of committed instruction (Count)
system.cpu.commit.committedInstType_0::SimdShaSigma3            0      0.00%     63.96% # Class of committed instruction (Count)
system.cpu.commit.committedInstType_0::SimdPredAlu            0      0.00%     63.96% # Class of committed instruction (Count)
system.cpu.commit.committedInstType_0::MemRead      1983980     28.44%     92.40% # Class of committed instruction (Count)
system.cpu.commit.committedInstType_0::MemWrite       377122      5.41%     97.80% # Class of committed instruction (Count)
system.cpu.commit.committedInstType_0::FloatMemRead       122320      1.75%     99.55% # Class of committed instruction (Count)
system.cpu.commit.committedInstType_0::FloatMemWrite        31081      0.45%    100.00% # Class of committed instruction (Count)
system.cpu.commit.committedInstType_0::IprAccess            0      0.00%    100.00% # Class of committed instruction (Count)
system.cpu.commit.committedInstType_0::InstPrefetch            0      0.00%    100.00% # Class of committed instruction (Count)
system.cpu.commit.committedInstType_0::total      6976589                       # Class of committed instruction (Count)
system.cpu.commit.commitEligibleSamples        140706                       # number cycles where commit BW limit reached (Cycle)
system.cpu.dcache.demandHits::cpu.data        4854042                       # number of demand (read+write) hits (Count)
system.cpu.dcache.demandHits::total           4854042                       # number of demand (read+write) hits (Count)
system.cpu.dcache.overallHits::cpu.data       4854048                       # number of overall hits (Count)
system.cpu.dcache.overallHits::total          4854048                       # number of overall hits (Count)
system.cpu.dcache.demandMisses::cpu.data        14134                       # number of demand (read+write) misses (Count)
system.cpu.dcache.demandMisses::total           14134                       # number of demand (read+write) misses (Count)
system.cpu.dcache.overallMisses::cpu.data        14811                       # number of overall misses (Count)
system.cpu.dcache.overallMisses::total          14811                       # number of overall misses (Count)
system.cpu.dcache.demandMissLatency::cpu.data    718788996                       # number of demand (read+write) miss ticks (Tick)
system.cpu.dcache.demandMissLatency::total    718788996                       # number of demand (read+write) miss ticks (Tick)
system.cpu.dcache.overallMissLatency::cpu.data    718788996                       # number of overall miss ticks (Tick)
system.cpu.dcache.overallMissLatency::total    718788996                       # number of overall miss ticks (Tick)
system.cpu.dcache.demandAccesses::cpu.data      4868176                       # number of demand (read+write) accesses (Count)
system.cpu.dcache.demandAccesses::total       4868176                       # number of demand (read+write) accesses (Count)
system.cpu.dcache.overallAccesses::cpu.data      4868859                       # number of overall (read+write) accesses (Count)
system.cpu.dcache.overallAccesses::total      4868859                       # number of overall (read+write) accesses (Count)
system.cpu.dcache.demandMissRate::cpu.data     0.002903                       # miss rate for demand accesses (Ratio)
system.cpu.dcache.demandMissRate::total      0.002903                       # miss rate for demand accesses (Ratio)
system.cpu.dcache.overallMissRate::cpu.data     0.003042                       # miss rate for overall accesses (Ratio)
system.cpu.dcache.overallMissRate::total     0.003042                       # miss rate for overall accesses (Ratio)
system.cpu.dcache.demandAvgMissLatency::cpu.data 50855.313146                       # average overall miss latency in ticks ((Tick/Count))
system.cpu.dcache.demandAvgMissLatency::total 50855.313146                       # average overall miss latency in ticks ((Tick/Count))
system.cpu.dcache.overallAvgMissLatency::cpu.data 48530.753899                       # average overall miss latency ((Tick/Count))
system.cpu.dcache.overallAvgMissLatency::total 48530.753899                       # average overall miss latency ((Tick/Count))
system.cpu.dcache.blockedCycles::no_mshrs         6137                       # number of cycles access was blocked (Cycle)
system.cpu.dcache.blockedCycles::no_targets          491                       # number of cycles access was blocked (Cycle)
system.cpu.dcache.blockedCauses::no_mshrs          333                       # number of times access was blocked (Count)
system.cpu.dcache.blockedCauses::no_targets            5                       # number of times access was blocked (Count)
system.cpu.dcache.avgBlocked::no_mshrs      18.429429                       # average number of cycles each access was blocked ((Cycle/Count))
system.cpu.dcache.avgBlocked::no_targets    98.200000                       # average number of cycles each access was blocked ((Cycle/Count))
system.cpu.dcache.writebacks::writebacks         7737                       # number of writebacks (Count)
system.cpu.dcache.writebacks::total              7737                       # number of writebacks (Count)
system.cpu.dcache.demandMshrHits::cpu.data         5696                       # number of demand (read+write) MSHR hits (Count)
system.cpu.dcache.demandMshrHits::total          5696                       # number of demand (read+write) MSHR hits (Count)
system.cpu.dcache.overallMshrHits::cpu.data         5696                       # number of overall MSHR hits (Count)
system.cpu.dcache.overallMshrHits::total         5696                       # number of overall MSHR hits (Count)
system.cpu.dcache.demandMshrMisses::cpu.data         8438                       # number of demand (read+write) MSHR misses (Count)
system.cpu.dcache.demandMshrMisses::total         8438                       # number of demand (read+write) MSHR misses (Count)
system.cpu.dcache.overallMshrMisses::cpu.data         9114                       # number of overall MSHR misses (Count)
system.cpu.dcache.overallMshrMisses::total         9114                       # number of overall MSHR misses (Count)
system.cpu.dcache.demandMshrMissLatency::cpu.data    444545996                       # number of demand (read+write) MSHR miss ticks (Tick)
system.cpu.dcache.demandMshrMissLatency::total    444545996                       # number of demand (read+write) MSHR miss ticks (Tick)
system.cpu.dcache.overallMshrMissLatency::cpu.data    475290996                       # number of overall MSHR miss ticks (Tick)
system.cpu.dcache.overallMshrMissLatency::total    475290996                       # number of overall MSHR miss ticks (Tick)
system.cpu.dcache.demandMshrMissRate::cpu.data     0.001733                       # mshr miss ratio for demand accesses (Ratio)
system.cpu.dcache.demandMshrMissRate::total     0.001733                       # mshr miss ratio for demand accesses (Ratio)
system.cpu.dcache.overallMshrMissRate::cpu.data     0.001872                       # mshr miss ratio for overall accesses (Ratio)
system.cpu.dcache.overallMshrMissRate::total     0.001872                       # mshr miss ratio for overall accesses (Ratio)
system.cpu.dcache.demandAvgMshrMissLatency::cpu.data 52683.810856                       # average overall mshr miss latency ((Tick/Count))
system.cpu.dcache.demandAvgMshrMissLatency::total 52683.810856                       # average overall mshr miss latency ((Tick/Count))
system.cpu.dcache.overallAvgMshrMissLatency::cpu.data 52149.549704                       # average overall mshr miss latency ((Tick/Count))
system.cpu.dcache.overallAvgMshrMissLatency::total 52149.549704                       # average overall mshr miss latency ((Tick/Count))
system.cpu.dcache.replacements                   8602                       # number of replacements (Count)
system.cpu.dcache.LockedRMWReadReq.hits::cpu.data           90                       # number of LockedRMWReadReq hits (Count)
system.cpu.dcache.LockedRMWReadReq.hits::total           90                       # number of LockedRMWReadReq hits (Count)
system.cpu.dcache.LockedRMWReadReq.accesses::cpu.data           90                       # number of LockedRMWReadReq accesses(hits+misses) (Count)
system.cpu.dcache.LockedRMWReadReq.accesses::total           90                       # number of LockedRMWReadReq accesses(hits+misses) (Count)
system.cpu.dcache.LockedRMWReadReq.mshrMissLatency::cpu.data       650000                       # number of LockedRMWReadReq MSHR miss ticks (Tick)
system.cpu.dcache.LockedRMWReadReq.mshrMissLatency::total       650000                       # number of LockedRMWReadReq MSHR miss ticks (Tick)
system.cpu.dcache.LockedRMWReadReq.avgMshrMissLatency::cpu.data          inf                       # average LockedRMWReadReq mshr miss latency ((Tick/Count))
system.cpu.dcache.LockedRMWReadReq.avgMshrMissLatency::total          inf                       # average LockedRMWReadReq mshr miss latency ((Tick/Count))
system.cpu.dcache.LockedRMWWriteReq.hits::cpu.data           90                       # number of LockedRMWWriteReq hits (Count)
system.cpu.dcache.LockedRMWWriteReq.hits::total           90                       # number of LockedRMWWriteReq hits (Count)
system.cpu.dcache.LockedRMWWriteReq.accesses::cpu.data           90                       # number of LockedRMWWriteReq accesses(hits+misses) (Count)
system.cpu.dcache.LockedRMWWriteReq.accesses::total           90                       # number of LockedRMWWriteReq accesses(hits+misses) (Count)
system.cpu.dcache.ReadReq.hits::cpu.data      4451300                       # number of ReadReq hits (Count)
system.cpu.dcache.ReadReq.hits::total         4451300                       # number of ReadReq hits (Count)
system.cpu.dcache.ReadReq.misses::cpu.data         8700                       # number of ReadReq misses (Count)
system.cpu.dcache.ReadReq.misses::total          8700                       # number of ReadReq misses (Count)
system.cpu.dcache.ReadReq.missLatency::cpu.data    391653000                       # number of ReadReq miss ticks (Tick)
system.cpu.dcache.ReadReq.missLatency::total    391653000                       # number of ReadReq miss ticks (Tick)
system.cpu.dcache.ReadReq.accesses::cpu.data      4460000                       # number of ReadReq accesses(hits+misses) (Count)
system.cpu.dcache.ReadReq.accesses::total      4460000                       # number of ReadReq accesses(hits+misses) (Count)
system.cpu.dcache.ReadReq.missRate::cpu.data     0.001951                       # miss rate for ReadReq accesses (Ratio)
system.cpu.dcache.ReadReq.missRate::total     0.001951                       # miss rate for ReadReq accesses (Ratio)
system.cpu.dcache.ReadReq.avgMissLatency::cpu.data 45017.586207                       # average ReadReq miss latency ((Tick/Count))
system.cpu.dcache.ReadReq.avgMissLatency::total 45017.586207                       # average ReadReq miss latency ((Tick/Count))
system.cpu.dcache.ReadReq.mshrHits::cpu.data         5675                       # number of ReadReq MSHR hits (Count)
system.cpu.dcache.ReadReq.mshrHits::total         5675                       # number of ReadReq MSHR hits (Count)
system.cpu.dcache.ReadReq.mshrMisses::cpu.data         3025                       # number of ReadReq MSHR misses (Count)
system.cpu.dcache.ReadReq.mshrMisses::total         3025                       # number of ReadReq MSHR misses (Count)
system.cpu.dcache.ReadReq.mshrMissLatency::cpu.data    129112000                       # number of ReadReq MSHR miss ticks (Tick)
system.cpu.dcache.ReadReq.mshrMissLatency::total    129112000                       # number of ReadReq MSHR miss ticks (Tick)
system.cpu.dcache.ReadReq.mshrMissRate::cpu.data     0.000678                       # mshr miss rate for ReadReq accesses (Ratio)
system.cpu.dcache.ReadReq.mshrMissRate::total     0.000678                       # mshr miss rate for ReadReq accesses (Ratio)
system.cpu.dcache.ReadReq.avgMshrMissLatency::cpu.data 42681.652893                       # average ReadReq mshr miss latency ((Tick/Count))
system.cpu.dcache.ReadReq.avgMshrMissLatency::total 42681.652893                       # average ReadReq mshr miss latency ((Tick/Count))
system.cpu.dcache.SoftPFReq.hits::cpu.data            6                       # number of SoftPFReq hits (Count)
system.cpu.dcache.SoftPFReq.hits::total             6                       # number of SoftPFReq hits (Count)
system.cpu.dcache.SoftPFReq.misses::cpu.data          677                       # number of SoftPFReq misses (Count)
system.cpu.dcache.SoftPFReq.misses::total          677                       # number of SoftPFReq misses (Count)
system.cpu.dcache.SoftPFReq.accesses::cpu.data          683                       # number of SoftPFReq accesses(hits+misses) (Count)
system.cpu.dcache.SoftPFReq.accesses::total          683                       # number of SoftPFReq accesses(hits+misses) (Count)
system.cpu.dcache.SoftPFReq.missRate::cpu.data     0.991215                       # miss rate for SoftPFReq accesses (Ratio)
system.cpu.dcache.SoftPFReq.missRate::total     0.991215                       # miss rate for SoftPFReq accesses (Ratio)
system.cpu.dcache.SoftPFReq.mshrMisses::cpu.data          676                       # number of SoftPFReq MSHR misses (Count)
system.cpu.dcache.SoftPFReq.mshrMisses::total          676                       # number of SoftPFReq MSHR misses (Count)
system.cpu.dcache.SoftPFReq.mshrMissLatency::cpu.data     30745000                       # number of SoftPFReq MSHR miss ticks (Tick)
system.cpu.dcache.SoftPFReq.mshrMissLatency::total     30745000                       # number of SoftPFReq MSHR miss ticks (Tick)
system.cpu.dcache.SoftPFReq.mshrMissRate::cpu.data     0.989751                       # mshr miss rate for SoftPFReq accesses (Ratio)
system.cpu.dcache.SoftPFReq.mshrMissRate::total     0.989751                       # mshr miss rate for SoftPFReq accesses (Ratio)
system.cpu.dcache.SoftPFReq.avgMshrMissLatency::cpu.data 45480.769231                       # average SoftPFReq mshr miss latency ((Tick/Count))
system.cpu.dcache.SoftPFReq.avgMshrMissLatency::total 45480.769231                       # average SoftPFReq mshr miss latency ((Tick/Count))
system.cpu.dcache.WriteReq.hits::cpu.data       402742                       # number of WriteReq hits (Count)
system.cpu.dcache.WriteReq.hits::total         402742                       # number of WriteReq hits (Count)
system.cpu.dcache.WriteReq.misses::cpu.data         5434                       # number of WriteReq misses (Count)
system.cpu.dcache.WriteReq.misses::total         5434                       # number of WriteReq misses (Count)
system.cpu.dcache.WriteReq.missLatency::cpu.data    327135996                       # number of WriteReq miss ticks (Tick)
system.cpu.dcache.WriteReq.missLatency::total    327135996                       # number of WriteReq miss ticks (Tick)
system.cpu.dcache.WriteReq.accesses::cpu.data       408176                       # number of WriteReq accesses(hits+misses) (Count)
system.cpu.dcache.WriteReq.accesses::total       408176                       # number of WriteReq accesses(hits+misses) (Count)
system.cpu.dcache.WriteReq.missRate::cpu.data     0.013313                       # miss rate for WriteReq accesses (Ratio)
system.cpu.dcache.WriteReq.missRate::total     0.013313                       # miss rate for WriteReq accesses (Ratio)
system.cpu.dcache.WriteReq.avgMissLatency::cpu.data 60201.692308                       # average WriteReq miss latency ((Tick/Count))
system.cpu.dcache.WriteReq.avgMissLatency::total 60201.692308                       # average WriteReq miss latency ((Tick/Count))
system.cpu.dcache.WriteReq.mshrHits::cpu.data           21                       # number of WriteReq MSHR hits (Count)
system.cpu.dcache.WriteReq.mshrHits::total           21                       # number of WriteReq MSHR hits (Count)
system.cpu.dcache.WriteReq.mshrMisses::cpu.data         5413                       # number of WriteReq MSHR misses (Count)
system.cpu.dcache.WriteReq.mshrMisses::total         5413                       # number of WriteReq MSHR misses (Count)
system.cpu.dcache.WriteReq.mshrMissLatency::cpu.data    315433996                       # number of WriteReq MSHR miss ticks (Tick)
system.cpu.dcache.WriteReq.mshrMissLatency::total    315433996                       # number of WriteReq MSHR miss ticks (Tick)
system.cpu.dcache.WriteReq.mshrMissRate::cpu.data     0.013261                       # mshr miss rate for WriteReq accesses (Ratio)
system.cpu.dcache.WriteReq.mshrMissRate::total     0.013261                       # mshr miss rate for WriteReq accesses (Ratio)
system.cpu.dcache.WriteReq.avgMshrMissLatency::cpu.data 58273.415112                       # average WriteReq mshr miss latency ((Tick/Count))
system.cpu.dcache.WriteReq.avgMshrMissLatency::total 58273.415112                       # average WriteReq mshr miss latency ((Tick/Count))
system.cpu.dcache.power_state.pwrStateResidencyTicks::UNDEFINED   7821020000                       # Cumulative time (in ticks) in various power states (Tick)
system.cpu.dcache.tags.tagsInUse           502.384359                       # Average ticks per tags in use ((Tick/Count))
system.cpu.dcache.tags.totalRefs              4863342                       # Total number of references to valid blocks. (Count)
system.cpu.dcache.tags.sampledRefs               9114                       # Sample count of references to valid blocks. (Count)
system.cpu.dcache.tags.avgRefs             533.612245                       # Average number of references to valid blocks. ((Count/Count))
system.cpu.dcache.tags.warmupTick              222000                       # The tick when the warmup percentage was hit. (Tick)
system.cpu.dcache.tags.occupancies::cpu.data   502.384359                       # Average occupied blocks per tick, per requestor ((Count/Tick))
system.cpu.dcache.tags.avgOccs::cpu.data     0.981219                       # Average percentage of cache occupancy ((Ratio/Tick))
system.cpu.dcache.tags.avgOccs::total        0.981219                       # Average percentage of cache occupancy ((Ratio/Tick))
system.cpu.dcache.tags.occupanciesTaskId::1024          512                       # Occupied blocks per task id (Count)
system.cpu.dcache.tags.ageTaskId_1024::0            9                       # Occupied blocks per task id, per block age (Count)
system.cpu.dcache.tags.ageTaskId_1024::1           71                       # Occupied blocks per task id, per block age (Count)
system.cpu.dcache.tags.ageTaskId_1024::2          389                       # Occupied blocks per task id, per block age (Count)
system.cpu.dcache.tags.ageTaskId_1024::3           43                       # Occupied blocks per task id, per block age (Count)
system.cpu.dcache.tags.ratioOccsTaskId::1024            1                       # Ratio of occupied blocks and all blocks, per task id (Ratio)
system.cpu.dcache.tags.tagAccesses           19485270                       # Number of tag accesses (Count)
system.cpu.dcache.tags.dataAccesses          19485270                       # Number of data accesses (Count)
system.cpu.dcache.tags.power_state.pwrStateResidencyTicks::UNDEFINED   7821020000                       # Cumulative time (in ticks) in various power states (Tick)
system.cpu.decode.idleCycles                  1372143                       # Number of cycles decode is idle (Cycle)
system.cpu.decode.blockedCycles               2758773                       # Number of cycles decode is blocked (Cycle)
system.cpu.decode.runCycles                   2918673                       # Number of cycles decode is running (Cycle)
system.cpu.decode.unblockCycles                464053                       # Number of cycles decode is unblocking (Cycle)
system.cpu.decode.squashCycles                 246375                       # Number of cycles decode is squashing (Cycle)
system.cpu.decode.branchResolved               192358                       # Number of times decode resolved a branch (Count)
system.cpu.decode.branchMispred                  8654                       # Number of times decode detected a branch misprediction (Count)
system.cpu.decode.decodedInsts               24121414                       # Number of instructions handled by decode (Count)
system.cpu.decode.squashedInsts                 30299                       # Number of squashed instructions handled by decode (Count)
system.cpu.fetch.icacheStallCycles            2098925                       # Number of cycles fetch is stalled on an Icache miss (Cycle)
system.cpu.fetch.insts                       20109595                       # Number of instructions fetch has processed (Count)
system.cpu.fetch.branches                     1301782                       # Number of branches that fetch encountered (Count)
system.cpu.fetch.predictedBranches             300593                       # Number of branches that fetch has predicted taken (Count)
system.cpu.fetch.cycles                       5406585                       # Number of cycles fetch has run and was not squashing or blocked (Cycle)
system.cpu.fetch.squashCycles                  507222                       # Number of cycles fetch has spent squashing (Cycle)
system.cpu.fetch.tlbCycles                          6                       # Number of cycles fetch has spent waiting for tlb (Cycle)
system.cpu.fetch.miscStallCycles                   98                       # Number of cycles fetch has spent waiting on interrupts, or bad addresses, or out of MSHRs (Cycle)
system.cpu.fetch.pendingTrapStallCycles           746                       # Number of stall cycles due to pending traps (Cycle)
system.cpu.fetch.icacheWaitRetryStallCycles           46                       # Number of stall cycles due to full MSHR (Cycle)
system.cpu.fetch.cacheLines                   1881551                       # Number of cache lines fetched (Count)
system.cpu.fetch.icacheSquashes                 36160                       # Number of outstanding Icache misses that were squashed (Count)
system.cpu.fetch.nisnDist::samples            7760017                       # Number of instructions fetched each cycle (Total) (Count)
system.cpu.fetch.nisnDist::mean              3.590020                       # Number of instructions fetched each cycle (Total) (Count)
system.cpu.fetch.nisnDist::stdev             3.653047                       # Number of instructions fetched each cycle (Total) (Count)
system.cpu.fetch.nisnDist::underflows               0      0.00%      0.00% # Number of instructions fetched each cycle (Total) (Count)
system.cpu.fetch.nisnDist::0                  3399259     43.80%     43.80% # Number of instructions fetched each cycle (Total) (Count)
system.cpu.fetch.nisnDist::1                   199188      2.57%     46.37% # Number of instructions fetched each cycle (Total) (Count)
system.cpu.fetch.nisnDist::2                   408369      5.26%     51.63% # Number of instructions fetched each cycle (Total) (Count)
system.cpu.fetch.nisnDist::3                   270643      3.49%     55.12% # Number of instructions fetched each cycle (Total) (Count)
system.cpu.fetch.nisnDist::4                   215552      2.78%     57.90% # Number of instructions fetched each cycle (Total) (Count)
system.cpu.fetch.nisnDist::5                   154363      1.99%     59.89% # Number of instructions fetched each cycle (Total) (Count)
system.cpu.fetch.nisnDist::6                   174515      2.25%     62.14% # Number of instructions fetched each cycle (Total) (Count)
system.cpu.fetch.nisnDist::7                   155374      2.00%     64.14% # Number of instructions fetched each cycle (Total) (Count)
system.cpu.fetch.nisnDist::8                  2782754     35.86%    100.00% # Number of instructions fetched each cycle (Total) (Count)
system.cpu.fetch.nisnDist::overflows                0      0.00%    100.00% # Number of instructions fetched each cycle (Total) (Count)
system.cpu.fetch.nisnDist::min_value                0                       # Number of instructions fetched each cycle (Total) (Count)
system.cpu.fetch.nisnDist::max_value                8                       # Number of instructions fetched each cycle (Total) (Count)
system.cpu.fetch.nisnDist::total              7760017                       # Number of instructions fetched each cycle (Total) (Count)
system.cpu.fetch.branchRate                  0.166447                       # Number of branch fetches per cycle (Ratio)
system.cpu.fetch.rate                        2.571224                       # Number of inst fetches per cycle ((Count/Cycle))
system.cpu.icache.demandHits::cpu.inst        1878781                       # number of demand (read+write) hits (Count)
system.cpu.icache.demandHits::total           1878781                       # number of demand (read+write) hits (Count)
system.cpu.icache.overallHits::cpu.inst       1878781                       # number of overall hits (Count)
system.cpu.icache.overallHits::total          1878781                       # number of overall hits (Count)
system.cpu.icache.demandMisses::cpu.inst         2770                       # number of demand (read+write) misses (Count)
system.cpu.icache.demandMisses::total            2770                       # number of demand (read+write) misses (Count)
system.cpu.icache.overallMisses::cpu.inst         2770                       # number of overall misses (Count)
system.cpu.icache.overallMisses::total           2770                       # number of overall misses (Count)
system.cpu.icache.demandMissLatency::cpu.inst    223342999                       # number of demand (read+write) miss ticks (Tick)
system.cpu.icache.demandMissLatency::total    223342999                       # number of demand (read+write) miss ticks (Tick)
system.cpu.icache.overallMissLatency::cpu.inst    223342999                       # number of overall miss ticks (Tick)
system.cpu.icache.overallMissLatency::total    223342999                       # number of overall miss ticks (Tick)
system.cpu.icache.demandAccesses::cpu.inst      1881551                       # number of demand (read+write) accesses (Count)
system.cpu.icache.demandAccesses::total       1881551                       # number of demand (read+write) accesses (Count)
system.cpu.icache.overallAccesses::cpu.inst      1881551                       # number of overall (read+write) accesses (Count)
system.cpu.icache.overallAccesses::total      1881551                       # number of overall (read+write) accesses (Count)
system.cpu.icache.demandMissRate::cpu.inst     0.001472                       # miss rate for demand accesses (Ratio)
system.cpu.icache.demandMissRate::total      0.001472                       # miss rate for demand accesses (Ratio)
system.cpu.icache.overallMissRate::cpu.inst     0.001472                       # miss rate for overall accesses (Ratio)
system.cpu.icache.overallMissRate::total     0.001472                       # miss rate for overall accesses (Ratio)
system.cpu.icache.demandAvgMissLatency::cpu.inst 80629.241516                       # average overall miss latency in ticks ((Tick/Count))
system.cpu.icache.demandAvgMissLatency::total 80629.241516                       # average overall miss latency in ticks ((Tick/Count))
system.cpu.icache.overallAvgMissLatency::cpu.inst 80629.241516                       # average overall miss latency ((Tick/Count))
system.cpu.icache.overallAvgMissLatency::total 80629.241516                       # average overall miss latency ((Tick/Count))
system.cpu.icache.blockedCycles::no_mshrs          439                       # number of cycles access was blocked (Cycle)
system.cpu.icache.blockedCycles::no_targets            0                       # number of cycles access was blocked (Cycle)
system.cpu.icache.blockedCauses::no_mshrs           14                       # number of times access was blocked (Count)
system.cpu.icache.blockedCauses::no_targets            0                       # number of times access was blocked (Count)
system.cpu.icache.avgBlocked::no_mshrs      31.357143                       # average number of cycles each access was blocked ((Cycle/Count))
system.cpu.icache.avgBlocked::no_targets          nan                       # average number of cycles each access was blocked ((Cycle/Count))
system.cpu.icache.demandMshrHits::cpu.inst          792                       # number of demand (read+write) MSHR hits (Count)
system.cpu.icache.demandMshrHits::total           792                       # number of demand (read+write) MSHR hits (Count)
system.cpu.icache.overallMshrHits::cpu.inst          792                       # number of overall MSHR hits (Count)
system.cpu.icache.overallMshrHits::total          792                       # number of overall MSHR hits (Count)
system.cpu.icache.demandMshrMisses::cpu.inst         1978                       # number of demand (read+write) MSHR misses (Count)
system.cpu.icache.demandMshrMisses::total         1978                       # number of demand (read+write) MSHR misses (Count)
system.cpu.icache.overallMshrMisses::cpu.inst         1978                       # number of overall MSHR misses (Count)
system.cpu.icache.overallMshrMisses::total         1978                       # number of overall MSHR misses (Count)
system.cpu.icache.demandMshrMissLatency::cpu.inst    168130000                       # number of demand (read+write) MSHR miss ticks (Tick)
system.cpu.icache.demandMshrMissLatency::total    168130000                       # number of demand (read+write) MSHR miss ticks (Tick)
system.cpu.icache.overallMshrMissLatency::cpu.inst    168130000                       # number of overall MSHR miss ticks (Tick)
system.cpu.icache.overallMshrMissLatency::total    168130000                       # number of overall MSHR miss ticks (Tick)
system.cpu.icache.demandMshrMissRate::cpu.inst     0.001051                       # mshr miss ratio for demand accesses (Ratio)
system.cpu.icache.demandMshrMissRate::total     0.001051                       # mshr miss ratio for demand accesses (Ratio)
system.cpu.icache.overallMshrMissRate::cpu.inst     0.001051                       # mshr miss ratio for overall accesses (Ratio)
system.cpu.icache.overallMshrMissRate::total     0.001051                       # mshr miss ratio for overall accesses (Ratio)
system.cpu.icache.demandAvgMshrMissLatency::cpu.inst        85000                       # average overall mshr miss latency ((Tick/Count))
system.cpu.icache.demandAvgMshrMissLatency::total        85000                       # average overall mshr miss latency ((Tick/Count))
system.cpu.icache.overallAvgMshrMissLatency::cpu.inst        85000                       # average overall mshr miss latency ((Tick/Count))
system.cpu.icache.overallAvgMshrMissLatency::total        85000                       # average overall mshr miss latency ((Tick/Count))
system.cpu.icache.replacements                   1466                       # number of replacements (Count)
system.cpu.icache.ReadReq.hits::cpu.inst      1878781                       # number of ReadReq hits (Count)
system.cpu.icache.ReadReq.hits::total         1878781                       # number of ReadReq hits (Count)
system.cpu.icache.ReadReq.misses::cpu.inst         2770                       # number of ReadReq misses (Count)
system.cpu.icache.ReadReq.misses::total          2770                       # number of ReadReq misses (Count)
system.cpu.icache.ReadReq.missLatency::cpu.inst    223342999                       # number of ReadReq miss ticks (Tick)
system.cpu.icache.ReadReq.missLatency::total    223342999                       # number of ReadReq miss ticks (Tick)
system.cpu.icache.ReadReq.accesses::cpu.inst      1881551                       # number of ReadReq accesses(hits+misses) (Count)
system.cpu.icache.ReadReq.accesses::total      1881551                       # number of ReadReq accesses(hits+misses) (Count)
system.cpu.icache.ReadReq.missRate::cpu.inst     0.001472                       # miss rate for ReadReq accesses (Ratio)
system.cpu.icache.ReadReq.missRate::total     0.001472                       # miss rate for ReadReq accesses (Ratio)
system.cpu.icache.ReadReq.avgMissLatency::cpu.inst 80629.241516                       # average ReadReq miss latency ((Tick/Count))
system.cpu.icache.ReadReq.avgMissLatency::total 80629.241516                       # average ReadReq miss latency ((Tick/Count))
system.cpu.icache.ReadReq.mshrHits::cpu.inst          792                       # number of ReadReq MSHR hits (Count)
system.cpu.icache.ReadReq.mshrHits::total          792                       # number of ReadReq MSHR hits (Count)
system.cpu.icache.ReadReq.mshrMisses::cpu.inst         1978                       # number of ReadReq MSHR misses (Count)
system.cpu.icache.ReadReq.mshrMisses::total         1978                       # number of ReadReq MSHR misses (Count)
system.cpu.icache.ReadReq.mshrMissLatency::cpu.inst    168130000                       # number of ReadReq MSHR miss ticks (Tick)
system.cpu.icache.ReadReq.mshrMissLatency::total    168130000                       # number of ReadReq MSHR miss ticks (Tick)
system.cpu.icache.ReadReq.mshrMissRate::cpu.inst     0.001051                       # mshr miss rate for ReadReq accesses (Ratio)
system.cpu.icache.ReadReq.mshrMissRate::total     0.001051                       # mshr miss rate for ReadReq accesses (Ratio)
system.cpu.icache.ReadReq.avgMshrMissLatency::cpu.inst        85000                       # average ReadReq mshr miss latency ((Tick/Count))
system.cpu.icache.ReadReq.avgMshrMissLatency::total        85000                       # average ReadReq mshr miss latency ((Tick/Count))
system.cpu.icache.power_state.pwrStateResidencyTicks::UNDEFINED   7821020000                       # Cumulative time (in ticks) in various power states (Tick)
system.cpu.icache.tags.tagsInUse           508.600022                       # Average ticks per tags in use ((Tick/Count))
system.cpu.icache.tags.totalRefs              1880759                       # Total number of references to valid blocks. (Count)
system.cpu.icache.tags.sampledRefs               1978                       # Sample count of references to valid blocks. (Count)
system.cpu.icache.tags.avgRefs             950.838726                       # Average number of references to valid blocks. ((Count/Count))
system.cpu.icache.tags.warmupTick              107000                       # The tick when the warmup percentage was hit. (Tick)
system.cpu.icache.tags.occupancies::cpu.inst   508.600022                       # Average occupied blocks per tick, per requestor ((Count/Tick))
system.cpu.icache.tags.avgOccs::cpu.inst     0.993359                       # Average percentage of cache occupancy ((Ratio/Tick))
system.cpu.icache.tags.avgOccs::total        0.993359                       # Average percentage of cache occupancy ((Ratio/Tick))
system.cpu.icache.tags.occupanciesTaskId::1024          512                       # Occupied blocks per task id (Count)
system.cpu.icache.tags.ageTaskId_1024::3          512                       # Occupied blocks per task id, per block age (Count)
system.cpu.icache.tags.ratioOccsTaskId::1024            1                       # Ratio of occupied blocks and all blocks, per task id (Ratio)
system.cpu.icache.tags.tagAccesses            3765080                       # Number of tag accesses (Count)
system.cpu.icache.tags.dataAccesses           3765080                       # Number of data accesses (Count)
system.cpu.icache.tags.power_state.pwrStateResidencyTicks::UNDEFINED   7821020000                       # Cumulative time (in ticks) in various power states (Tick)
system.cpu.iew.idleCycles                           0                       # Number of cycles IEW is idle (Cycle)
system.cpu.iew.squashCycles                    246375                       # Number of cycles IEW is squashing (Cycle)
system.cpu.iew.blockCycles                    1741417                       # Number of cycles IEW is blocking (Cycle)
system.cpu.iew.unblockCycles                    17779                       # Number of cycles IEW is unblocking (Cycle)
system.cpu.iew.dispatchedInsts               21149804                       # Number of instructions dispatched to IQ (Count)
system.cpu.iew.dispSquashedInsts                67295                       # Number of squashed instructions skipped by dispatch (Count)
system.cpu.iew.dispLoadInsts                  6304714                       # Number of dispatched load instructions (Count)
system.cpu.iew.dispStoreInsts                 1707945                       # Number of dispatched store instructions (Count)
system.cpu.iew.dispNonSpecInsts                  1011                       # Number of dispatched non-speculative instructions (Count)
system.cpu.iew.iqFullEvents                       254                       # Number of times the IQ has become full, causing a stall (Count)
system.cpu.iew.lsqFullEvents                    17643                       # Number of times the LSQ has become full, causing a stall (Count)
system.cpu.iew.memOrderViolationEvents           2441                       # Number of memory order violations (Count)
system.cpu.iew.predictedTakenIncorrect             26                       # Number of branches that were predicted taken incorrectly (Count)
system.cpu.iew.predictedNotTakenIncorrect       284457                       # Number of branches that were predicted not taken incorrectly (Count)
system.cpu.iew.branchMispredicts               284483                       # Number of branch mispredicts detected at execute (Count)
system.cpu.iew.instsToCommit                 15251453                       # Cumulative count of insts sent to commit (Count)
system.cpu.iew.writebackCount                15082746                       # Cumulative count of insts written-back (Count)
system.cpu.iew.producerInst                  12600003                       # Number of instructions producing a value (Count)
system.cpu.iew.consumerInst                  17290448                       # Number of instructions consuming a value (Count)
system.cpu.iew.wbRate                        1.928488                       # Insts written-back per cycle ((Count/Cycle))
system.cpu.iew.wbFanout                      0.728726                       # Average fanout of values written-back ((Count/Count))
system.cpu.interrupts.clk_domain.clock          16000                       # Clock period in ticks (Tick)
system.cpu.lsq0.forwLoads                      532361                       # Number of loads that had data forwarded from stores (Count)
system.cpu.lsq0.squashedLoads                 4198389                       # Number of loads squashed (Count)
system.cpu.lsq0.ignoredResponses                  886                       # Number of memory responses ignored because the instruction is squashed (Count)
system.cpu.lsq0.memOrderViolation                2441                       # Number of memory ordering violations (Count)
system.cpu.lsq0.squashedStores                1299738                       # Number of stores squashed (Count)
system.cpu.lsq0.rescheduledLoads                 3253                       # Number of loads that were rescheduled (Count)
system.cpu.lsq0.blockedByCache                    236                       # Number of times an access to memory failed due to the cache being blocked (Count)
system.cpu.lsq0.loadToUse::samples            2105609                       # Distribution of cycle latency between the first time a load is issued and its completion (Unspecified)
system.cpu.lsq0.loadToUse::mean              3.349745                       # Distribution of cycle latency between the first time a load is issued and its completion (Unspecified)
system.cpu.lsq0.loadToUse::stdev             3.748087                       # Distribution of cycle latency between the first time a load is issued and its completion (Unspecified)
system.cpu.lsq0.loadToUse::0-9                2096932     99.59%     99.59% # Distribution of cycle latency between the first time a load is issued and its completion (Unspecified)
system.cpu.lsq0.loadToUse::10-19                 1055      0.05%     99.64% # Distribution of cycle latency between the first time a load is issued and its completion (Unspecified)
system.cpu.lsq0.loadToUse::20-29                 5086      0.24%     99.88% # Distribution of cycle latency between the first time a load is issued and its completion (Unspecified)
system.cpu.lsq0.loadToUse::30-39                  365      0.02%     99.90% # Distribution of cycle latency between the first time a load is issued and its completion (Unspecified)
system.cpu.lsq0.loadToUse::40-49                   59      0.00%     99.90% # Distribution of cycle latency between the first time a load is issued and its completion (Unspecified)
system.cpu.lsq0.loadToUse::50-59                   42      0.00%     99.90% # Distribution of cycle latency between the first time a load is issued and its completion (Unspecified)
system.cpu.lsq0.loadToUse::60-69                   28      0.00%     99.90% # Distribution of cycle latency between the first time a load is issued and its completion (Unspecified)
system.cpu.lsq0.loadToUse::70-79                   61      0.00%     99.91% # Distribution of cycle latency between the first time a load is issued and its completion (Unspecified)
system.cpu.lsq0.loadToUse::80-89                   49      0.00%     99.91% # Distribution of cycle latency between the first time a load is issued and its completion (Unspecified)
system.cpu.lsq0.loadToUse::90-99                  872      0.04%     99.95% # Distribution of cycle latency between the first time a load is issued and its completion (Unspecified)
system.cpu.lsq0.loadToUse::100-109                516      0.02%     99.97% # Distribution of cycle latency between the first time a load is issued and its completion (Unspecified)
system.cpu.lsq0.loadToUse::110-119                328      0.02%     99.99% # Distribution of cycle latency between the first time a load is issued and its completion (Unspecified)
system.cpu.lsq0.loadToUse::120-129                125      0.01%    100.00% # Distribution of cycle latency between the first time a load is issued and its completion (Unspecified)
[...]
system.mem_ctrl.requestorReadAvgLat::cpu.inst     26985.10                       # Per-requestor read average memory access latency ((Tick/Count))
system.mem_ctrl.requestorReadAvgLat::cpu.data     29235.20                       # Per-requestor read average memory access latency ((Tick/Count))
system.mem_ctrl.dram.bytesRead::cpu.inst        99840                       # Number of bytes read from this memory (Byte)
system.mem_ctrl.dram.bytesRead::cpu.data       204288                       # Number of bytes read from this memory (Byte)
system.mem_ctrl.dram.bytesRead::total          304128                       # Number of bytes read from this memory (Byte)
system.mem_ctrl.dram.bytesInstRead::cpu.inst        99840                       # Number of instructions bytes read from this memory (Byte)
system.mem_ctrl.dram.bytesInstRead::total        99840                       # Number of instructions bytes read from this memory (Byte)
system.mem_ctrl.dram.numReads::cpu.inst          1560                       # Number of read requests responded to by this memory (Count)
system.mem_ctrl.dram.numReads::cpu.data          3192                       # Number of read requests responded to by this memory (Count)
system.mem_ctrl.dram.numReads::total             4752                       # Number of read requests responded to by this memory (Count)
system.mem_ctrl.dram.bwRead::cpu.inst        12765598                       # Total read bandwidth from this memory ((Byte/Second))
system.mem_ctrl.dram.bwRead::cpu.data        26120378                       # Total read bandwidth from this memory ((Byte/Second))
system.mem_ctrl.dram.bwRead::total           38885977                       # Total read bandwidth from this memory ((Byte/Second))
system.mem_ctrl.dram.bwInstRead::cpu.inst     12765598                       # Instruction read bandwidth from this memory ((Byte/Second))
system.mem_ctrl.dram.bwInstRead::total       12765598                       # Instruction read bandwidth from this memory ((Byte/Second))
system.mem_ctrl.dram.bwTotal::cpu.inst       12765598                       # Total bandwidth to/from this memory ((Byte/Second))
system.mem_ctrl.dram.bwTotal::cpu.data       26120378                       # Total bandwidth to/from this memory ((Byte/Second))
system.mem_ctrl.dram.bwTotal::total          38885977                       # Total bandwidth to/from this memory ((Byte/Second))
system.mem_ctrl.dram.readBursts                  4752                       # Number of DRAM read bursts (Count)
system.mem_ctrl.dram.writeBursts                    0                       # Number of DRAM write bursts (Count)
system.mem_ctrl.dram.perBankRdBursts::0           204                       # Per bank write bursts (Count)
system.mem_ctrl.dram.perBankRdBursts::1           230                       # Per bank write bursts (Count)
system.mem_ctrl.dram.perBankRdBursts::2           323                       # Per bank write bursts (Count)
system.mem_ctrl.dram.perBankRdBursts::3           195                       # Per bank write bursts (Count)
system.mem_ctrl.dram.perBankRdBursts::4           366                       # Per bank write bursts (Count)
system.mem_ctrl.dram.perBankRdBursts::5           293                       # Per bank write bursts (Count)
system.mem_ctrl.dram.perBankRdBursts::6           227                       # Per bank write bursts (Count)
system.mem_ctrl.dram.perBankRdBursts::7           269                       # Per bank write bursts (Count)
system.mem_ctrl.dram.perBankRdBursts::8           468                       # Per bank write bursts (Count)
system.mem_ctrl.dram.perBankRdBursts::9           365                       # Per bank write bursts (Count)
system.mem_ctrl.dram.perBankRdBursts::10          453                       # Per bank write bursts (Count)
system.mem_ctrl.dram.perBankRdBursts::11          497                       # Per bank write bursts (Count)
system.mem_ctrl.dram.perBankRdBursts::12          258                       # Per bank write bursts (Count)
system.mem_ctrl.dram.perBankRdBursts::13          211                       # Per bank write bursts (Count)
system.mem_ctrl.dram.perBankRdBursts::14          183                       # Per bank write bursts (Count)
system.mem_ctrl.dram.perBankRdBursts::15          210                       # Per bank write bursts (Count)
system.mem_ctrl.dram.perBankWrBursts::0             0                       # Per bank write bursts (Count)
system.mem_ctrl.dram.perBankWrBursts::1             0                       # Per bank write bursts (Count)
system.mem_ctrl.dram.perBankWrBursts::2             0                       # Per bank write bursts (Count)
system.mem_ctrl.dram.perBankWrBursts::3             0                       # Per bank write bursts (Count)
system.mem_ctrl.dram.perBankWrBursts::4             0                       # Per bank write bursts (Count)
system.mem_ctrl.dram.perBankWrBursts::5             0                       # Per bank write bursts (Count)
system.mem_ctrl.dram.perBankWrBursts::6             0                       # Per bank write bursts (Count)
system.mem_ctrl.dram.perBankWrBursts::7             0                       # Per bank write bursts (Count)
system.mem_ctrl.dram.perBankWrBursts::8             0                       # Per bank write bursts (Count)
system.mem_ctrl.dram.perBankWrBursts::9             0                       # Per bank write bursts (Count)
system.mem_ctrl.dram.perBankWrBursts::10            0                       # Per bank write bursts (Count)
system.mem_ctrl.dram.perBankWrBursts::11            0                       # Per bank write bursts (Count)
system.mem_ctrl.dram.perBankWrBursts::12            0                       # Per bank write bursts (Count)
system.mem_ctrl.dram.perBankWrBursts::13            0                       # Per bank write bursts (Count)
system.mem_ctrl.dram.perBankWrBursts::14            0                       # Per bank write bursts (Count)
system.mem_ctrl.dram.perBankWrBursts::15            0                       # Per bank write bursts (Count)
system.mem_ctrl.dram.totQLat                 46315500                       # Total ticks spent queuing (Tick)
system.mem_ctrl.dram.totBusLat               23760000                       # Total ticks spent in databus transfers (Tick)
system.mem_ctrl.dram.totMemAccLat           135415500                       # Total ticks spent from burst creation until serviced by the DRAM (Tick)
system.mem_ctrl.dram.avgQLat                  9746.53                       # Average queueing delay per DRAM burst ((Tick/Count))
system.mem_ctrl.dram.avgBusLat                5000.00                       # Average bus latency per DRAM burst ((Tick/Count))
system.mem_ctrl.dram.avgMemAccLat            28496.53                       # Average memory access latency per DRAM burst ((Tick/Count))
system.mem_ctrl.dram.readRowHits                 3294                       # Number of row buffer hits during reads (Count)
system.mem_ctrl.dram.writeRowHits                   0                       # Number of row buffer hits during writes (Count)
system.mem_ctrl.dram.readRowHitRate             69.32                       # Row buffer hit rate for reads (Ratio)
system.mem_ctrl.dram.writeRowHitRate              nan                       # Row buffer hit rate for writes (Ratio)
system.mem_ctrl.dram.bytesPerActivate::samples         1458                       # Bytes accessed per row activation (Byte)
system.mem_ctrl.dram.bytesPerActivate::mean   208.592593                       # Bytes accessed per row activation (Byte)
system.mem_ctrl.dram.bytesPerActivate::gmean   137.731148                       # Bytes accessed per row activation (Byte)
system.mem_ctrl.dram.bytesPerActivate::stdev   245.574966                       # Bytes accessed per row activation (Byte)
system.mem_ctrl.dram.bytesPerActivate::0-127          591     40.53%     40.53% # Bytes accessed per row activation (Byte)
system.mem_ctrl.dram.bytesPerActivate::128-255          580     39.78%     80.32% # Bytes accessed per row activation (Byte)
system.mem_ctrl.dram.bytesPerActivate::256-383           89      6.10%     86.42% # Bytes accessed per row activation (Byte)
system.mem_ctrl.dram.bytesPerActivate::384-511           43      2.95%     89.37% # Bytes accessed per row activation (Byte)
system.mem_ctrl.dram.bytesPerActivate::512-639           32      2.19%     91.56% # Bytes accessed per row activation (Byte)
system.mem_ctrl.dram.bytesPerActivate::640-767           20      1.37%     92.94% # Bytes accessed per row activation (Byte)
system.mem_ctrl.dram.bytesPerActivate::768-895           12      0.82%     93.76% # Bytes accessed per row activation (Byte)
system.mem_ctrl.dram.bytesPerActivate::896-1023           11      0.75%     94.51% # Bytes accessed per row activation (Byte)
system.mem_ctrl.dram.bytesPerActivate::1024-1151           80      5.49%    100.00% # Bytes accessed per row activation (Byte)
system.mem_ctrl.dram.bytesPerActivate::total         1458                       # Bytes accessed per row activation (Byte)
system.mem_ctrl.dram.bytesRead                 304128                       # Total bytes read (Byte)
system.mem_ctrl.dram.bytesWritten                   0                       # Total bytes written (Byte)
system.mem_ctrl.dram.avgRdBW                38.885977                       # Average DRAM read bandwidth in MiBytes/s ((Byte/Second))
system.mem_ctrl.dram.avgWrBW                        0                       # Average DRAM write bandwidth in MiBytes/s ((Byte/Second))
system.mem_ctrl.dram.peakBW                  12800.00                       # Theoretical peak bandwidth in MiByte/s ((Byte/Second))
system.mem_ctrl.dram.busUtil                     0.30                       # Data bus utilization in percentage (Ratio)
system.mem_ctrl.dram.busUtilRead                 0.30                       # Data bus utilization in percentage for reads (Ratio)
system.mem_ctrl.dram.busUtilWrite                0.00                       # Data bus utilization in percentage for writes (Ratio)
system.mem_ctrl.dram.pageHitRate                69.32                       # Row buffer hit rate, read and write combined (Ratio)
system.mem_ctrl.dram.power_state.pwrStateResidencyTicks::UNDEFINED   7821020000                       # Cumulative time (in ticks) in various power states (Tick)
system.mem_ctrl.dram.rank0.actEnergy          5483520                       # Energy for activate commands per rank (pJ) (Joule)
system.mem_ctrl.dram.rank0.preEnergy          2914560                       # Energy for precharge commands per rank (pJ) (Joule)
system.mem_ctrl.dram.rank0.readEnergy        15043980                       # Energy for read commands per rank (pJ) (Joule)
system.mem_ctrl.dram.rank0.writeEnergy              0                       # Energy for write commands per rank (pJ) (Joule)
system.mem_ctrl.dram.rank0.refreshEnergy 617098560.000000                       # Energy for refresh commands per rank (pJ) (Joule)
system.mem_ctrl.dram.rank0.actBackEnergy    883997040                       # Energy for active background per rank (pJ) (Joule)
system.mem_ctrl.dram.rank0.preBackEnergy   2258853120                       # Energy for precharge background per rank (pJ) (Joule)
system.mem_ctrl.dram.rank0.actPowerDownEnergy            0                       # Energy for active power-down per rank (pJ) (Joule)
system.mem_ctrl.dram.rank0.prePowerDownEnergy            0                       # Energy for precharge power-down per rank (pJ) (Joule)
system.mem_ctrl.dram.rank0.selfRefreshEnergy            0                       # Energy for self refresh per rank (pJ) (Joule)
system.mem_ctrl.dram.rank0.totalEnergy     3783390780                       # Total energy per rank (pJ) (Joule)
system.mem_ctrl.dram.rank0.averagePower    483.746465                       # Core power per rank (mW) (Watt)
system.mem_ctrl.dram.rank0.totalIdleTime            0                       # Total Idle time Per DRAM Rank (Tick)
system.mem_ctrl.dram.rank0.pwrStateTime::IDLE   5864576000                       # Time in different power states (Tick)
system.mem_ctrl.dram.rank0.pwrStateTime::REF    261040000                       # Time in different power states (Tick)
system.mem_ctrl.dram.rank0.pwrStateTime::SREF            0                       # Time in different power states (Tick)
system.mem_ctrl.dram.rank0.pwrStateTime::PRE_PDN            0                       # Time in different power states (Tick)
system.mem_ctrl.dram.rank0.pwrStateTime::ACT   1695404000                       # Time in different power states (Tick)
system.mem_ctrl.dram.rank0.pwrStateTime::ACT_PDN            0                       # Time in different power states (Tick)
system.mem_ctrl.dram.rank1.actEnergy          4926600                       # Energy for activate commands per rank (pJ) (Joule)
system.mem_ctrl.dram.rank1.preEnergy          2618550                       # Energy for precharge commands per rank (pJ) (Joule)
system.mem_ctrl.dram.rank1.readEnergy        18885300                       # Energy for read commands per rank (pJ) (Joule)
system.mem_ctrl.dram.rank1.writeEnergy              0                       # Energy for write commands per rank (pJ) (Joule)
system.mem_ctrl.dram.rank1.refreshEnergy 617098560.000000                       # Energy for refresh commands per rank (pJ) (Joule)
system.mem_ctrl.dram.rank1.actBackEnergy    794536110                       # Energy for active background per rank (pJ) (Joule)
system.mem_ctrl.dram.rank1.preBackEnergy   2334188640                       # Energy for precharge background per rank (pJ) (Joule)
system.mem_ctrl.dram.rank1.actPowerDownEnergy            0                       # Energy for active power-down per rank (pJ) (Joule)
system.mem_ctrl.dram.rank1.prePowerDownEnergy            0                       # Energy for precharge power-down per rank (pJ) (Joule)
system.mem_ctrl.dram.rank1.selfRefreshEnergy            0                       # Energy for self refresh per rank (pJ) (Joule)
system.mem_ctrl.dram.rank1.totalEnergy     3772253760                       # Total energy per rank (pJ) (Joule)
system.mem_ctrl.dram.rank1.averagePower    482.322480                       # Core power per rank (mW) (Watt)
system.mem_ctrl.dram.rank1.totalIdleTime            0                       # Total Idle time Per DRAM Rank (Tick)
system.mem_ctrl.dram.rank1.pwrStateTime::IDLE   6060711250                       # Time in different power states (Tick)
system.mem_ctrl.dram.rank1.pwrStateTime::REF    261040000                       # Time in different power states (Tick)
system.mem_ctrl.dram.rank1.pwrStateTime::SREF            0                       # Time in different power states (Tick)
system.mem_ctrl.dram.rank1.pwrStateTime::PRE_PDN            0                       # Time in different power states (Tick)
system.mem_ctrl.dram.rank1.pwrStateTime::ACT   1499268750                       # Time in different power states (Tick)
system.mem_ctrl.dram.rank1.pwrStateTime::ACT_PDN            0                       # Time in different power states (Tick)
system.mem_ctrl.power_state.pwrStateResidencyTicks::UNDEFINED   7821020000                       # Cumulative time (in ticks) in various power states (Tick)
system.membus.transDist::ReadResp                2390                       # Transaction distribution (Count)
system.membus.transDist::ReadExReq               2362                       # Transaction distribution (Count)
system.membus.transDist::ReadExResp              2362                       # Transaction distribution (Count)
system.membus.transDist::ReadSharedReq           2390                       # Transaction distribution (Count)
system.membus.pktCount_system.l2cache.mem_side_port::system.mem_ctrl.port         9504                       # Packet count per connected requestor and responder (Count)
system.membus.pktCount_system.l2cache.mem_side_port::total         9504                       # Packet count per connected requestor and responder (Count)
system.membus.pktCount::total                    9504                       # Packet count per connected requestor and responder (Count)
system.membus.pktSize_system.l2cache.mem_side_port::system.mem_ctrl.port       304128                       # Cumulative packet size per connected requestor and responder (Byte)
system.membus.pktSize_system.l2cache.mem_side_port::total       304128                       # Cumulative packet size per connected requestor and responder (Byte)
system.membus.pktSize::total                   304128                       # Cumulative packet size per connected requestor and responder (Byte)
system.membus.snoops                                0                       # Total snoops (Count)
system.membus.snoopTraffic                          0                       # Total snoop traffic (Byte)
system.membus.snoopFanout::samples               4752                       # Request fanout histogram (Count)
system.membus.snoopFanout::mean                     0                       # Request fanout histogram (Count)
system.membus.snoopFanout::stdev                    0                       # Request fanout histogram (Count)
system.membus.snoopFanout::underflows               0      0.00%      0.00% # Request fanout histogram (Count)
system.membus.snoopFanout::0                     4752    100.00%    100.00% # Request fanout histogram (Count)
system.membus.snoopFanout::1                        0      0.00%    100.00% # Request fanout histogram (Count)
system.membus.snoopFanout::overflows                0      0.00%    100.00% # Request fanout histogram (Count)
system.membus.snoopFanout::min_value                0                       # Request fanout histogram (Count)
system.membus.snoopFanout::max_value                0                       # Request fanout histogram (Count)
system.membus.snoopFanout::total                 4752                       # Request fanout histogram (Count)
system.membus.power_state.pwrStateResidencyTicks::UNDEFINED   7821020000                       # Cumulative time (in ticks) in various power states (Tick)
system.membus.reqLayer2.occupancy             4752000                       # Layer occupancy (ticks) (Tick)
system.membus.reqLayer2.utilization               0.0                       # Layer utilization (Ratio)
system.membus.respLayer0.occupancy           25259250                       # Layer occupancy (ticks) (Tick)
system.membus.respLayer0.utilization              0.0                       # Layer utilization (Ratio)
system.membus.snoop_filter.totRequests           4752                       # Total number of requests made to the snoop filter. (Count)
system.membus.snoop_filter.hitSingleRequests            0                       # Number of requests hitting in the snoop filter with a single holder of the requested data. (Count)
system.membus.snoop_filter.hitMultiRequests            0                       # Number of requests hitting in the snoop filter with multiple (>1) holders of the requested data. (Count)
system.membus.snoop_filter.totSnoops                0                       # Total number of snoops made to the snoop filter. (Count)
system.membus.snoop_filter.hitSingleSnoops            0                       # Number of snoops hitting in the snoop filter with a single holder of the requested data. (Count)
system.membus.snoop_filter.hitMultiSnoops            0                       # Number of snoops hitting in the snoop filter with multiple (>1) holders of the requested data. (Count)
system.workload.inst.arm                            0                       # number of arm instructions executed (Count)
system.workload.inst.quiesce                        0                       # number of quiesce instructions executed (Count)

---------- End Simulation Statistics   ----------
